@<TRIPOS>MOLECULE
MOL
  178   175     1     0     0
SMALL
resp


@<TRIPOS>ATOM
      1 C1          4.8880   -1.8810    2.5460 c3        1 MOL     -0.497922
      2 C2          6.2280   -1.2540    2.2770 c         1 MOL      0.702883
      3 O1          6.3930   -0.1200    1.9950 o         1 MOL     -0.553954
      4 H1          4.8160   -2.1410    3.6030 hc        1 MOL      0.143745
      5 H2          4.0980   -1.1740    2.2920 hc        1 MOL      0.143745
      6 H3          4.7790   -2.7810    1.9420 hc        1 MOL      0.143745
      7 N1          7.3210   -2.0310    2.4810 n         1 MOL     -0.526936
      8 C3          8.7470   -1.6380    2.4710 c3        1 MOL      0.252074
      9 C4          9.2840   -1.3360    1.0530 c         1 MOL      0.348903
     10 O2          9.5880   -2.2450    0.1610 o         1 MOL     -0.512976
     11 C5          9.7280   -2.6330    3.1020 c3        1 MOL     -0.382734
     12 C6         11.1630   -2.0850    3.2040 c         1 MOL      0.779617
     13 O3         11.3900   -0.8630    3.4440 o         1 MOL     -0.734565
     14 O4         12.1300   -2.9250    3.1920 o         1 MOL     -0.734565
     15 H4          7.1130   -2.9850    2.7350 hn        1 MOL      0.271663
     16 H5          8.7920   -0.7680    3.1260 h1        1 MOL      0.013166
     17 H6          9.6190   -3.5330    2.4970 hc        1 MOL      0.070071
     18 H7          9.3670   -2.9350    4.0870 hc        1 MOL      0.070071
     19 N2          9.1370   -0.0830    0.7330 n         1 MOL     -0.331038
     20 C7          9.2560    0.3790   -0.6250 c3        1 MOL      0.303422
     21 C8          7.9480    0.1300   -1.5160 c         1 MOL      0.274869
     22 O5          7.9440    0.1200   -2.7830 o         1 MOL     -0.526755
     23 C9          9.5750    1.8300   -0.7200 c3        1 MOL     -0.406054
     24 H8          9.0090    0.6050    1.4590 hn        1 MOL      0.249683
     25 H9          9.9550   -0.2510   -1.1650 h1        1 MOL      0.056540
     26 H10         9.5060    2.2360   -1.7330 hc        1 MOL      0.101673
     27 H11         8.8900    2.3930   -0.0930 hc        1 MOL      0.101673
     28 H12        10.6290    1.9820   -0.4910 hc        1 MOL      0.101673
     29 N3          6.7650   -0.0350   -0.8700 n         1 MOL     -0.226511
     30 C10         5.4230   -0.2240   -1.3600 c3        1 MOL      0.005222
     31 C11         4.9420    0.7840   -2.4400 c         1 MOL      0.547312
     32 O6          4.3290    0.3860   -3.3910 o         1 MOL     -0.483676
     33 C12         5.2500   -1.7400   -1.5460 c3        1 MOL      0.245870
     34 C13         3.7800   -2.1670   -1.7710 c         1 MOL      0.514635
     35 O7          3.5550   -3.1640   -2.3930 o         1 MOL     -0.705737
     36 O8          2.9160   -1.5950   -1.0080 o         1 MOL     -0.705737
     37 H13         6.8860   -0.0660    0.1330 hn        1 MOL      0.137850
     38 H14         4.8910    0.0020   -0.4380 h1        1 MOL     -0.015103
     39 H15         5.6260   -2.3660   -0.7400 hc        1 MOL     -0.043199
     40 H16         5.7430   -1.9470   -2.4860 hc        1 MOL     -0.043199
     41 N4          5.4610    2.0120   -2.4030 n         1 MOL     -0.289163
     42 C14         5.1950    3.1160   -3.3530 c3        1 MOL     -0.236230
     43 C15         3.7560    3.5670   -3.5360 c         1 MOL      0.603050
     44 O9          3.5410    4.7560   -3.8590 o         1 MOL     -0.608198
     45 H17         6.0140    2.2600   -1.5900 hn        1 MOL      0.239214
     46 H18         5.6150    2.8090   -4.3060 h1        1 MOL      0.128461
     47 H19         5.8050    3.9370   -2.9830 h1        1 MOL      0.128461
     48 N5          2.7520    2.7900   -3.1450 n         1 MOL     -0.405758
     49 C16         1.3160    3.2980   -2.9800 c3        1 MOL      0.092827
     50 C17         1.1810    4.4460   -1.9610 c         1 MOL      0.503253
     51 O10         1.9130    4.5180   -0.9730 o         1 MOL     -0.509379
     52 C18         0.3940    2.1370   -2.6040 c3        1 MOL     -0.199023
     53 C19        -1.0980    2.3830   -2.8170 c         1 MOL      0.560239
     54 N6         -1.8510    3.0110   -1.9670 n         1 MOL     -0.686782
     55 O11        -1.5430    2.1580   -3.9480 o         1 MOL     -0.570406
     56 H20         2.9400    1.8720   -2.7530 hn        1 MOL      0.209577
     57 H21         0.9200    3.5360   -3.9630 h1        1 MOL      0.051575
     58 H22         0.5910    1.9000   -1.5570 hc        1 MOL      0.123852
     59 H23         0.6300    1.3100   -3.2740 hc        1 MOL      0.123852
     60 H24        -1.5460    3.3630   -1.0690 hn        1 MOL      0.327827
     61 H25        -2.7010    3.4090   -2.3480 hn        1 MOL      0.327827
     62 N7          0.2560    5.3630   -2.2360 n         1 MOL     -0.289865
     63 C20         0.0060    6.6180   -1.4990 c3        1 MOL     -0.014054
     64 C21        -1.3890    6.7020   -0.8760 c         1 MOL      0.566178
     65 O12        -2.3030    6.1920   -1.4980 o         1 MOL     -0.522633
     66 H26        -0.1230    5.3040   -3.1740 hn        1 MOL      0.231358
     67 H27         0.1320    7.5400   -2.0760 h1        1 MOL      0.043056
     68 H28         0.7190    6.6130   -0.6710 h1        1 MOL      0.043056
     69 N8         -1.6040    7.2510    0.2830 n         1 MOL     -0.435352
     70 C22        -2.9270    7.1680    1.0090 c3        1 MOL     -0.315928
     71 C23        -3.1740    5.8740    1.7580 c         1 MOL      0.493588
     72 O13        -4.3220    5.4790    1.9720 o         1 MOL     -0.567746
     73 C24        -3.0350    8.3540    1.9760 c3        1 MOL      0.523073
     74 C25        -1.9960    8.1630    3.0690 c3        1 MOL     -0.378464
     75 O14        -2.7870    9.5310    1.4270 oh        1 MOL     -0.608680
     76 H29        -0.7820    7.5580    0.7880 hn        1 MOL      0.258923
     77 H30        -3.6730    7.2730    0.2080 h1        1 MOL      0.193673
     78 H31        -4.0240    8.4150    2.4350 h1        1 MOL      0.016096
     79 H32        -1.8360    9.5740    1.2800 ho        1 MOL      0.366314
     80 H33        -1.7780    9.0730    3.6300 hc        1 MOL      0.088069
     81 H34        -2.4440    7.5220    3.8210 hc        1 MOL      0.088069
     82 H35        -1.1140    7.6310    2.7000 hc        1 MOL      0.088069
     83 N9         -2.1460    5.0850    2.0110 n         1 MOL     -0.100248
     84 C26        -2.2250    3.6680    2.4540 c3        1 MOL     -0.097759
     85 C27        -1.7180    2.7060    1.4320 c         1 MOL      0.751191
     86 O15        -0.8060    3.0340    0.6170 o         1 MOL     -0.606309
     87 C28        -1.3440    3.5910    3.7420 c3        1 MOL      0.095538
     88 C29        -1.5740    4.7360    4.7500 c3        1 MOL     -0.145939
     89 C30        -1.6300    2.1820    4.3240 c3        1 MOL      0.118783
     90 C31        -3.0160    4.9470    5.2680 c3        1 MOL     -0.195169
     91 H36        -1.2230    5.4770    1.8280 hn        1 MOL      0.168936
     92 H37        -3.2470    3.4720    2.7780 h1        1 MOL      0.095129
     93 H38        -0.2940    3.5750    3.4880 hc        1 MOL      0.015995
     94 H39        -1.1440    5.6840    4.4250 hc        1 MOL      0.042741
     95 H40        -0.9570    4.4110    5.6030 hc        1 MOL      0.042741
     96 H41        -2.6860    1.9710    4.5160 hc        1 MOL     -0.036596
     97 H42        -1.2970    1.3540    3.6980 hc        1 MOL     -0.036596
     98 H43        -1.0220    2.0510    5.2110 hc        1 MOL     -0.036596
     99 H44        -3.4010    4.0170    5.6890 hc        1 MOL      0.054549
    100 H45        -2.9780    5.7420    6.0090 hc        1 MOL      0.054549
    101 H46        -3.6540    5.4060    4.5070 hc        1 MOL      0.054549
    102 N10        -2.4260    1.5760    1.2810 n         1 MOL     -0.927882
    103 C32        -2.0700    0.4950    0.3040 c3        1 MOL      0.840611
    104 C33        -3.3440   -0.0590   -0.3160 c         1 MOL      0.354799
    105 O16        -3.3610   -0.3780   -1.5050 o         1 MOL     -0.447176
    106 C34        -1.2530   -0.6430    1.0380 c3        1 MOL     -0.436284
    107 C35        -0.5990   -1.7070    0.1340 c         1 MOL      0.742181
    108 O17         0.0050   -2.6520    0.6610 o         1 MOL     -0.751342
    109 O18        -0.6230   -1.7130   -1.1280 o         1 MOL     -0.751342
    110 H47        -3.1170    1.4070    1.9940 hn        1 MOL      0.370228
    111 H48        -1.4470    0.9080   -0.4900 h1        1 MOL     -0.152168
    112 H49        -2.0210   -1.1790    1.5940 hc        1 MOL      0.104100
    113 H50        -0.4380   -0.1270    1.5380 hc        1 MOL      0.104100
    114 N11        -4.4870   -0.0950    0.3880 n         1 MOL     -0.502310
    115 C36        -5.7160   -0.6570   -0.2190 c3        1 MOL      0.413418
    116 C37        -6.0640   -2.0880    0.3590 c         1 MOL      0.216905
    117 O19        -5.9660   -2.1540    1.6030 o         1 MOL     -0.473636
    118 C38        -6.7910    0.4380   -0.0420 c3        1 MOL     -0.091684
    119 C39        -7.9330    0.2300   -1.0150 ca        1 MOL      0.052289
    120 C40        -7.7270    0.6630   -2.3090 ca        1 MOL     -0.129416
    121 C41        -9.0990   -0.4290   -0.6030 ca        1 MOL     -0.129416
    122 C42        -8.7010    0.4360   -3.2600 ca        1 MOL     -0.162759
    123 C43       -10.1470   -0.5540   -1.5060 ca        1 MOL     -0.162759
    124 C44        -9.8810   -0.1570   -2.8650 ca        1 MOL     -0.070437
    125 H51        -4.6100    0.3640    1.2820 hn        1 MOL      0.241007
    126 H52        -5.6060   -0.6960   -1.3090 h1        1 MOL     -0.053972
    127 H53        -6.3580    1.4190   -0.2420 hc        1 MOL      0.033483
    128 H54        -7.2660    0.4410    0.9390 hc        1 MOL      0.033483
    129 H55        -6.9390    1.3090   -2.6750 ha        1 MOL      0.137205
    130 H56        -9.3000   -0.7210    0.4230 ha        1 MOL      0.137205
    131 H57        -8.5410    0.9340   -4.2060 ha        1 MOL      0.123027
    132 H58       -11.0300   -1.0870   -1.1660 ha        1 MOL      0.123027
    133 H59       -10.5860   -0.3270   -3.6580 ha        1 MOL      0.079857
    134 N12        -6.5600   -3.0640   -0.3870 n         1 MOL     -0.124591
    135 C45        -7.0150   -4.3990    0.1230 c3        1 MOL      0.164583
    136 C46        -6.0780   -5.0440    1.1050 c         1 MOL      0.185928
    137 O20        -6.6350   -5.4560    2.1930 o         1 MOL     -0.449340
    138 C47        -7.0470   -5.3050   -1.1150 c3        1 MOL      0.063088
    139 C48        -7.2760   -4.3110   -2.3220 c3        1 MOL      0.008735
    140 C49        -6.5690   -3.0790   -1.8430 c3        1 MOL     -0.319482
    141 H60        -8.0060   -4.3460    0.5650 h1        1 MOL      0.038708
    142 H61        -6.0580   -5.7610   -1.2210 hc        1 MOL     -0.014638
    143 H62        -7.8290   -6.0610   -1.1770 hc        1 MOL     -0.014638
    144 H63        -6.8230   -4.7170   -3.2320 hc        1 MOL      0.030999
    145 H64        -8.3120   -4.0400   -2.5160 hc        1 MOL      0.030999
    146 H65        -5.5400   -3.0540   -2.2090 h1        1 MOL      0.149578
    147 H66        -7.1900   -2.2740   -2.2160 h1        1 MOL      0.149578
    148 N13        -4.7060   -4.8550    0.9950 n         1 MOL     -0.039063
    149 C50        -3.7610   -5.4970    1.9190 c3        1 MOL     -0.321134
    150 C51        -3.8540   -4.8400    3.3680 c         1 MOL      0.487916
    151 O21        -3.9710   -5.5820    4.3520 o         1 MOL     -0.535717
    152 C52        -2.3610   -5.3430    1.2940 c3        1 MOL      0.057534
    153 C53        -2.2200   -6.1760   -0.0090 c3        1 MOL     -0.058351
    154 C54        -0.9790   -5.7580   -0.8190 c         1 MOL      0.526173
    155 O22        -1.0510   -4.9370   -1.7990 o         1 MOL     -0.697330
    156 O23         0.1050   -6.1510   -0.3880 o         1 MOL     -0.697330
    157 H67        -4.2780   -4.2700    0.2830 hn        1 MOL      0.280650
    158 H68        -3.9860   -6.5590    2.0070 h1        1 MOL      0.153720
    159 H69        -1.6160   -5.6560    2.0190 hc        1 MOL      0.044623
    160 H70        -2.0880   -4.3270    1.0200 hc        1 MOL      0.044623
    161 H71        -3.0930   -6.0390   -0.6440 hc        1 MOL      0.001016
    162 H72        -2.0790   -7.2250    0.2440 hc        1 MOL      0.001016
    163 N14        -3.9960   -3.5420    3.5300 n         1 MOL     -0.141788
    164 C55        -3.9360   -2.9430    4.8420 c3        1 MOL     -0.440968
    165 H73        -3.2480   -3.5100    5.4690 h1        1 MOL      0.150556
    166 H74        -3.5840   -1.9140    4.7560 h1        1 MOL      0.150556
    167 H75        -4.9280   -2.9510    5.2930 h1        1 MOL      0.150556
    168 H76        -4.0360   -2.9620    2.7080 hn        1 MOL      0.194306
    169 Ca1         1.1650   -3.7530   -1.5350 Ca        1 MOL      1.766706
    170 O24         0.3760   -3.1430   -3.9260 oh        1 MOL     -0.814849
    171 H77        -0.4320   -2.7420   -4.2400 ho        1 MOL      0.405269
    172 H78         0.9790   -3.0820   -4.6660 ho        1 MOL      0.405269
    173 O25         2.8440   -4.6940    0.2820 oh        1 MOL     -0.814849
    174 H79         3.5610   -5.3330    0.2480 ho        1 MOL      0.405269
    175 H80         2.6560   -4.5920    1.2100 ho        1 MOL      0.405269
    176 O26         1.7180   -5.6980   -3.1750 oh        1 MOL     -0.814849
    177 H81         1.6220   -5.8400   -4.1210 ho        1 MOL      0.405269
    178 H82         1.5680   -6.5600   -2.7830 ho        1 MOL      0.405269
@<TRIPOS>BOND
     1    1    2 1   
     2    1    4 1   
     3    1    5 1   
     4    1    6 1   
     5    2    3 2   
     6    2    7 1   
     7    7    8 1   
     8    7   15 1   
     9    8    9 1   
    10    8   11 1   
    11    8   16 1   
    12    9   10 2   
    13    9   19 1   
    14   11   12 1   
    15   11   17 1   
    16   11   18 1   
    17   12   13 1   
    18   12   14 1   
    19   19   20 1   
    20   19   24 1   
    21   20   21 1   
    22   20   23 1   
    23   20   25 1   
    24   21   22 2   
    25   21   29 1   
    26   23   26 1   
    27   23   27 1   
    28   23   28 1   
    29   29   30 1   
    30   29   37 1   
    31   30   31 1   
    32   30   33 1   
    33   30   38 1   
    34   31   32 2   
    35   31   41 1   
    36   33   34 1   
    37   33   39 1   
    38   33   40 1   
    39   34   35 1   
    40   34   36 1   
    41   41   42 1   
    42   41   45 1   
    43   42   43 1   
    44   42   46 1   
    45   42   47 1   
    46   43   44 2   
    47   43   48 1   
    48   48   49 1   
    49   48   56 1   
    50   49   50 1   
    51   49   52 1   
    52   49   57 1   
    53   50   51 2   
    54   50   62 1   
    55   52   53 1   
    56   52   58 1   
    57   52   59 1   
    58   53   54 1   
    59   53   55 2   
    60   54   60 1   
    61   54   61 1   
    62   62   63 1   
    63   62   66 1   
    64   63   64 1   
    65   63   67 1   
    66   63   68 1   
    67   64   65 2   
    68   64   69 1   
    69   69   70 1   
    70   69   76 1   
    71   70   71 1   
    72   70   73 1   
    73   70   77 1   
    74   71   72 2   
    75   71   83 1   
    76   73   74 1   
    77   73   75 1   
    78   73   78 1   
    79   74   80 1   
    80   74   81 1   
    81   74   82 1   
    82   75   79 1   
    83   83   84 1   
    84   83   91 1   
    85   84   85 1   
    86   84   87 1   
    87   84   92 1   
    88   85   86 2   
    89   85  102 1   
    90   87   88 1   
    91   87   89 1   
    92   87   93 1   
    93   88   90 1   
    94   88   94 1   
    95   88   95 1   
    96   89   96 1   
    97   89   97 1   
    98   89   98 1   
    99   90   99 1   
   100   90  100 1   
   101   90  101 1   
   102  102  103 1   
   103  102  110 1   
   104  103  104 1   
   105  103  106 1   
   106  103  111 1   
   107  104  105 2   
   108  104  114 1   
   109  106  107 1   
   110  106  112 1   
   111  106  113 1   
   112  107  108 1   
   113  107  109 1   
   114  114  115 1   
   115  114  125 1   
   116  115  116 1   
   117  115  118 1   
   118  115  126 1   
   119  116  117 2   
   120  116  134 1   
   121  118  119 1   
   122  118  127 1   
   123  118  128 1   
   124  119  120 ar  
   125  119  121 ar  
   126  120  122 ar  
   127  120  129 1   
   128  121  123 ar  
   129  121  130 1   
   130  122  124 ar  
   131  122  131 1   
   132  123  124 ar  
   133  123  132 1   
   134  124  133 1   
   135  134  135 1   
   136  134  140 1   
   137  135  136 1   
   138  135  138 1   
   139  135  141 1   
   140  136  137 2   
   141  136  148 1   
   142  138  139 1   
   143  138  142 1   
   144  138  143 1   
   145  139  140 1   
   146  139  144 1   
   147  139  145 1   
   148  140  146 1   
   149  140  147 1   
   150  148  149 1   
   151  148  157 1   
   152  149  150 1   
   153  149  152 1   
   154  149  158 1   
   155  150  151 2   
   156  150  163 1   
   157  152  153 1   
   158  152  159 1   
   159  152  160 1   
   160  153  154 1   
   161  153  161 1   
   162  153  162 1   
   163  154  155 1   
   164  154  156 1   
   165  163  164 1   
   166  163  168 1   
   167  164  165 1   
   168  164  166 1   
   169  164  167 1   
   170  170  171 1   
   171  170  172 1   
   172  173  174 1   
   173  173  175 1   
   174  176  177 1   
   175  176  178 1   
@<TRIPOS>SUBSTRUCTURE
     1 MOL         1 TEMP              0 ****  ****    0 ROOT
