@<TRIPOS>MOLECULE
MOL
  178   175     1     0     0
SMALL
resp


@<TRIPOS>ATOM
      1 C1          1.1260    6.4850   -1.8740 c3        1 MOL     -0.414907
      2 C2          2.4260    5.9470   -1.1680 c         1 MOL      0.754409
      3 O1          2.6110    6.1930    0.0240 o         1 MOL     -0.583761
      4 H1          0.5930    7.1490   -1.1940 hc        1 MOL      0.094655
      5 H2          1.4010    7.0330   -2.7760 hc        1 MOL      0.094655
      6 H3          0.4830    5.6460   -2.1390 hc        1 MOL      0.094655
      7 N1          3.3510    5.4830   -1.9790 n         1 MOL     -0.627698
      8 C3          4.6590    4.9570   -1.4950 c3        1 MOL      0.265702
      9 C4          4.5120    4.0340   -0.2870 c         1 MOL      0.711713
     10 O2          3.7480    3.0660   -0.3530 o         1 MOL     -0.663988
     11 C5          5.5210    4.3010   -2.6050 c3        1 MOL     -0.327919
     12 C6          6.9870    4.3000   -2.2420 c         1 MOL      0.755352
     13 O3          7.6830    3.2950   -2.4020 o         1 MOL     -0.736104
     14 O4          7.4750    5.3400   -1.7180 o         1 MOL     -0.736104
     15 H4          3.2290    5.4730   -2.9870 hn        1 MOL      0.309452
     16 H5          5.2480    5.8160   -1.1970 h1        1 MOL     -0.014786
     17 H6          5.3990    4.8570   -3.5300 hc        1 MOL      0.045497
     18 H7          5.2190    3.2770   -2.8130 hc        1 MOL      0.045497
     19 N2          5.1240    4.4290    0.8430 n         1 MOL     -0.663280
     20 C7          5.2130    3.6120    2.0820 c3        1 MOL      0.499845
     21 C8          3.8200    3.4110    2.7320 c         1 MOL      0.325178
     22 O5          2.9160    4.2740    2.7630 o         1 MOL     -0.506383
     23 C9          6.1900    4.1670    3.1120 c3        1 MOL     -0.442250
     24 H8          5.7540    5.2230    0.8310 hn        1 MOL      0.329384
     25 H9          5.5940    2.6210    1.8410 h1        1 MOL      0.004436
     26 H10         5.8620    5.1500    3.4630 hc        1 MOL      0.108693
     27 H11         6.1260    3.5290    3.9950 hc        1 MOL      0.108693
     28 H12         7.1910    4.2110    2.6990 hc        1 MOL      0.108693
     29 N3          3.6080    2.2830    3.3960 n         1 MOL     -0.300921
     30 C10         4.4470    1.0950    3.6460 c3        1 MOL      0.131068
     31 C11         4.5870    0.2180    2.3500 c         1 MOL      0.029717
     32 O6          3.7600    0.3580    1.4590 o         1 MOL     -0.190559
     33 C12         3.8830    0.1910    4.7940 c3        1 MOL     -0.159815
     34 C13         2.4210   -0.1500    4.7710 c         1 MOL      0.670626
     35 O7          1.8310   -0.5710    5.7550 o         1 MOL     -0.658152
     36 O8          1.7920   -0.0570    3.6620 o         1 MOL     -0.658152
     37 H13         2.7300    2.3150    3.9120 hn        1 MOL      0.242850
     38 H14         5.4220    1.3940    4.0130 h1        1 MOL      0.021366
     39 H15         4.0970    0.7130    5.7210 hc        1 MOL      0.028844
     40 H16         4.4780   -0.7180    4.7880 hc        1 MOL      0.028844
     41 N4          5.5220   -0.7140    2.3010 n         1 MOL     -0.327090
     42 C14         5.6730   -1.5280    1.0510 c3        1 MOL      0.114747
     43 C15         6.6360   -0.8970    0.0060 c         1 MOL      0.508919
     44 O9          7.0210    0.2500    0.2070 o         1 MOL     -0.462658
     45 H17         6.0480   -0.9600    3.1280 hn        1 MOL      0.304359
     46 H18         4.7250   -1.6330    0.5110 h1        1 MOL      0.001175
     47 H19         6.0280   -2.5260    1.3100 h1        1 MOL      0.001175
     48 N5          7.0850   -1.5340   -1.0410 n         1 MOL     -0.602905
     49 C16         6.8310   -2.9450   -1.3380 c3        1 MOL     -0.014745
     50 C17         5.7500   -3.0030   -2.4950 c         1 MOL      0.564798
     51 O10         5.6380   -3.9700   -3.2240 o         1 MOL     -0.559056
     52 C18         8.1610   -3.5870   -1.5320 c3        1 MOL     -0.040022
     53 C19         8.7110   -4.0660   -0.2600 c         1 MOL      0.635358
     54 N6          9.1730   -5.2940   -0.1640 n         1 MOL     -0.806456
     55 O11         8.9530   -3.3000    0.6780 o         1 MOL     -0.534880
     56 H20         7.8000   -1.0660   -1.5850 hn        1 MOL      0.372700
     57 H21         6.3120   -3.4830   -0.5420 h1        1 MOL      0.089431
     58 H22         8.9090   -2.9630   -2.0230 hc        1 MOL      0.038100
     59 H23         8.0980   -4.4820   -2.1390 hc        1 MOL      0.038100
     60 H24         8.9560   -6.0090   -0.8490 hn        1 MOL      0.369185
     61 H25         9.6660   -5.5470    0.6780 hn        1 MOL      0.369185
     62 N7          5.0250   -1.9250   -2.6590 n         1 MOL     -0.319208
     63 C20         3.8920   -1.6880   -3.5910 c3        1 MOL     -0.365865
     64 C21         2.5770   -2.3320   -3.1650 c         1 MOL      0.484644
     65 O12         1.5380   -2.1600   -3.7920 o         1 MOL     -0.534379
     66 H26         5.3040   -1.1020   -2.1420 hn        1 MOL      0.293593
     67 H27         4.2300   -2.1970   -4.5010 h1        1 MOL      0.190339
     68 H28         3.7900   -0.6280   -3.8420 h1        1 MOL      0.190339
     69 N8          2.5810   -3.1320   -2.1170 n         1 MOL     -0.122061
     70 C22         1.5060   -4.0330   -1.7500 c3        1 MOL     -0.080888
     71 C23         0.3640   -3.2150   -1.1340 c         1 MOL      0.382440
     72 O13         0.5490   -2.1880   -0.4170 o         1 MOL     -0.450575
     73 C24         1.9230   -5.1990   -0.8060 c3        1 MOL      0.305719
     74 C25         2.9070   -6.0770   -1.4740 c3        1 MOL     -0.271027
     75 O14         2.5610   -4.6560    0.2950 oh        1 MOL     -0.598530
     76 H29         3.4950   -3.3390   -1.7260 hn        1 MOL      0.168446
     77 H30         1.2330   -4.4760   -2.7000 h1        1 MOL      0.082716
     78 H31         1.0150   -5.7440   -0.5330 h1        1 MOL      0.045909
     79 H32         3.1730   -5.3270    0.6240 ho        1 MOL      0.397857
     80 H33         3.0610   -6.9810   -0.8720 hc        1 MOL      0.062476
     81 H34         2.5240   -6.4030   -2.4390 hc        1 MOL      0.062476
     82 H35         3.9080   -5.6730   -1.6410 hc        1 MOL      0.062476
     83 N9         -0.8680   -3.7480   -1.2300 n         1 MOL     -0.119231
     84 C26        -2.1290   -3.0450   -1.1310 c3        1 MOL     -0.176948
     85 C27        -2.8740   -3.3960    0.1640 c         1 MOL      0.365554
     86 O15        -3.1130   -4.5580    0.3950 o         1 MOL     -0.537762
     87 C28        -2.9420   -3.2970   -2.4470 c3        1 MOL      0.232301
     88 C29        -4.2010   -2.5170   -2.4180 c3        1 MOL      0.200133
     89 C30        -2.1430   -3.0370   -3.7680 c3        1 MOL     -0.154032
     90 C31        -5.0560   -2.5820   -3.6920 c3        1 MOL     -0.347251
     91 H36        -0.8880   -4.6550   -1.6730 hn        1 MOL      0.171087
     92 H37        -1.9040   -1.9830   -1.1090 h1        1 MOL      0.081510
     93 H38        -3.1490   -4.3690   -2.4790 hc        1 MOL     -0.042506
     94 H39        -4.0040   -1.5080   -2.0710 hc        1 MOL     -0.026557
     95 H40        -4.7790   -3.0690   -1.6630 hc        1 MOL     -0.026557
     96 H41        -1.1060   -3.3730   -3.7840 hc        1 MOL      0.024895
     97 H42        -2.6320   -3.5720   -4.5890 hc        1 MOL      0.024895
     98 H43        -2.1230   -1.9890   -4.0400 hc        1 MOL      0.024895
     99 H44        -4.5440   -2.0030   -4.4670 hc        1 MOL      0.064636
    100 H45        -5.0130   -3.6450   -3.8780 hc        1 MOL      0.064636
    101 H46        -6.0630   -2.2040   -3.4930 hc        1 MOL      0.064636
    102 N10        -3.1170   -2.4000    1.0200 n         1 MOL     -0.046640
    103 C32        -3.9010   -2.5810    2.3300 c3        1 MOL     -0.018437
    104 C33        -5.2870   -1.9380    2.1060 c         1 MOL      0.405782
    105 O16        -6.1610   -2.0880    2.9540 o         1 MOL     -0.552132
    106 C34        -3.1780   -1.9130    3.4750 c3        1 MOL      0.033172
    107 C35        -1.6820   -2.1260    3.3780 c         1 MOL      0.775543
    108 O17        -1.2650   -3.2300    3.7180 o         1 MOL     -0.753939
    109 O18        -0.9120   -1.2240    3.0140 o         1 MOL     -0.753939
    110 H47        -2.6620   -1.5140    0.8610 hn        1 MOL      0.012819
    111 H48        -4.0340   -3.6220    2.6140 h1        1 MOL      0.079876
    112 H49        -3.5850   -2.2250    4.4330 hc        1 MOL     -0.012733
    113 H50        -3.3470   -0.8350    3.5270 hc        1 MOL     -0.012733
    114 N11        -5.4440   -1.1240    1.0920 n         1 MOL     -0.328189
    115 C36        -6.7770   -0.4760    0.8300 c3        1 MOL      0.356141
    116 C37        -6.7190    0.9890    0.4230 c         1 MOL      0.275782
    117 O19        -7.2770    1.4720   -0.5290 o         1 MOL     -0.469292
    118 C38        -7.5960   -1.3510   -0.1930 c3        1 MOL     -0.405008
    119 C39        -9.0650   -1.3740    0.1850 ca        1 MOL      0.111532
    120 C40        -9.5620   -2.1890    1.2210 ca        1 MOL     -0.091093
    121 C41       -10.0080   -0.6710   -0.5690 ca        1 MOL     -0.091093
    122 C42       -10.8840   -2.2730    1.5870 ca        1 MOL     -0.200632
    123 C43       -11.4100   -0.8290   -0.2900 ca        1 MOL     -0.200632
    124 C44       -11.8060   -1.4490    0.8640 ca        1 MOL     -0.053376
    125 H51        -4.6810   -0.8870    0.4740 hn        1 MOL      0.194468
    126 H52        -7.3320   -0.6270    1.7660 h1        1 MOL      0.035284
    127 H53        -7.2170   -2.3750   -0.1990 hc        1 MOL      0.126760
    128 H54        -7.3360   -0.9420   -1.1680 hc        1 MOL      0.126760
    129 H55        -8.8310   -2.6890    1.8370 ha        1 MOL      0.107384
    130 H56        -9.7320   -0.2150   -1.5150 ha        1 MOL      0.107384
    131 H57       -11.1990   -2.9580    2.3640 ha        1 MOL      0.122065
    132 H58       -12.1440   -0.2820   -0.8550 ha        1 MOL      0.122065
    133 H59       -12.8700   -1.5000    1.0580 ha        1 MOL      0.072421
    134 N12        -6.0210    1.8670    1.2730 n         1 MOL     -0.185684
    135 C45        -5.8250    3.2930    0.9630 c3        1 MOL      0.212313
    136 C46        -5.3480    3.6080   -0.4580 c         1 MOL      0.152345
    137 O20        -5.6980    4.6200   -1.0530 o         1 MOL     -0.475194
    138 C47        -4.9220    3.8640    2.1210 c3        1 MOL      0.065090
    139 C48        -5.2050    2.9460    3.3130 c3        1 MOL     -0.176815
    140 C49        -5.4970    1.5940    2.5920 c3        1 MOL     -0.101255
    141 H60        -6.7770    3.8230    0.9550 h1        1 MOL      0.018289
    142 H61        -3.8840    3.9450    1.8090 hc        1 MOL      0.011312
    143 H62        -5.3490    4.8520    2.2960 hc        1 MOL      0.011312
    144 H63        -4.2690    3.0090    3.8850 hc        1 MOL      0.063954
    145 H64        -6.0590    3.3360    3.8540 hc        1 MOL      0.063954
    146 H65        -4.5500    1.0590    2.4570 h1        1 MOL      0.096798
    147 H66        -6.1230    0.9410    3.2010 h1        1 MOL      0.096798
    148 N13        -4.4880    2.7610   -1.0360 n         1 MOL      0.037817
    149 C50        -3.8580    3.0500   -2.3340 c3        1 MOL     -0.274500
    150 C51        -4.9800    3.3300   -3.3390 c         1 MOL      0.523463
    151 O21        -4.9110    4.2960   -4.1670 o         1 MOL     -0.566007
    152 C52        -3.0520    1.7760   -2.8360 c3        1 MOL      0.094487
    153 C53        -1.8570    1.3740   -1.9130 c3        1 MOL     -0.084454
    154 C54        -2.0780    0.8140   -0.4930 c         1 MOL      0.703826
    155 O22        -1.2050    0.7500    0.3750 o         1 MOL     -0.657166
    156 O23        -3.2270    0.3590   -0.1310 o         1 MOL     -0.657166
    157 H67        -4.1940    1.9680   -0.4980 hn        1 MOL      0.120817
    158 H68        -3.1270    3.8480   -2.2140 h1        1 MOL      0.153678
    159 H69        -2.7580    2.1020   -3.8360 hc        1 MOL     -0.020370
    160 H70        -3.6480    0.8770   -2.9680 hc        1 MOL     -0.020370
    161 H71        -1.2350    2.2650   -1.8540 hc        1 MOL      0.017564
    162 H72        -1.2390    0.6510   -2.4420 hc        1 MOL      0.017564
    163 N14        -6.0040    2.4970   -3.3770 n         1 MOL     -0.181940
    164 C55        -7.0790    2.6070   -4.4300 c3        1 MOL     -0.357777
    165 H73        -7.7460    3.4330   -4.1830 h1        1 MOL      0.129173
    166 H74        -6.6200    2.7900   -5.4010 h1        1 MOL      0.129173
    167 H75        -7.6480    1.6790   -4.4670 h1        1 MOL      0.129173
    168 H76        -6.0760    1.7330   -2.7220 hn        1 MOL      0.241822
    169 Ca1         0.9230   -0.2480    1.3550 Ca        1 MOL      1.693449
    170 O24         2.2530   -2.4970    1.8740 oh        1 MOL     -0.948267
    171 O25         1.4660    2.3460    1.1620 oh        1 MOL     -0.948267
    172 H77         2.4760   -2.6520    2.7960 ho        1 MOL      0.447377
    173 H78         2.1920    2.2790    0.5380 ho        1 MOL      0.447377
    174 H79         2.2340   -3.3780    1.4860 ho        1 MOL      0.447377
    175 H80         1.5750    3.2110    1.5540 ho        1 MOL      0.447377
    176 O26         2.2120    0.0700   -0.9660 oh        1 MOL     -0.948267
    177 H81         1.8760    0.0400   -1.8620 ho        1 MOL      0.447377
    178 H82         3.1530    0.1850   -1.0680 ho        1 MOL      0.447377
@<TRIPOS>BOND
     1    1    2 1   
     2    1    4 1   
     3    1    5 1   
     4    1    6 1   
     5    2    3 2   
     6    2    7 1   
     7    7    8 1   
     8    7   15 1   
     9    8    9 1   
    10    8   11 1   
    11    8   16 1   
    12    9   10 2   
    13    9   19 1   
    14   11   12 1   
    15   11   17 1   
    16   11   18 1   
    17   12   13 1   
    18   12   14 1   
    19   19   20 1   
    20   19   24 1   
    21   20   21 1   
    22   20   23 1   
    23   20   25 1   
    24   21   22 2   
    25   21   29 1   
    26   23   26 1   
    27   23   27 1   
    28   23   28 1   
    29   29   30 1   
    30   29   37 1   
    31   30   31 1   
    32   30   33 1   
    33   30   38 1   
    34   31   32 2   
    35   31   41 1   
    36   33   34 1   
    37   33   39 1   
    38   33   40 1   
    39   34   35 1   
    40   34   36 1   
    41   41   42 1   
    42   41   45 1   
    43   42   43 1   
    44   42   46 1   
    45   42   47 1   
    46   43   44 2   
    47   43   48 1   
    48   48   49 1   
    49   48   56 1   
    50   49   50 1   
    51   49   52 1   
    52   49   57 1   
    53   50   51 2   
    54   50   62 1   
    55   52   53 1   
    56   52   58 1   
    57   52   59 1   
    58   53   54 1   
    59   53   55 2   
    60   54   60 1   
    61   54   61 1   
    62   62   63 1   
    63   62   66 1   
    64   63   64 1   
    65   63   67 1   
    66   63   68 1   
    67   64   65 2   
    68   64   69 1   
    69   69   70 1   
    70   69   76 1   
    71   70   71 1   
    72   70   73 1   
    73   70   77 1   
    74   71   72 2   
    75   71   83 1   
    76   73   74 1   
    77   73   75 1   
    78   73   78 1   
    79   74   80 1   
    80   74   81 1   
    81   74   82 1   
    82   75   79 1   
    83   83   84 1   
    84   83   91 1   
    85   84   85 1   
    86   84   87 1   
    87   84   92 1   
    88   85   86 2   
    89   85  102 1   
    90   87   88 1   
    91   87   89 1   
    92   87   93 1   
    93   88   90 1   
    94   88   94 1   
    95   88   95 1   
    96   89   96 1   
    97   89   97 1   
    98   89   98 1   
    99   90   99 1   
   100   90  100 1   
   101   90  101 1   
   102  102  103 1   
   103  102  110 1   
   104  103  104 1   
   105  103  106 1   
   106  103  111 1   
   107  104  105 2   
   108  104  114 1   
   109  106  107 1   
   110  106  112 1   
   111  106  113 1   
   112  107  108 1   
   113  107  109 1   
   114  114  115 1   
   115  114  125 1   
   116  115  116 1   
   117  115  118 1   
   118  115  126 1   
   119  116  117 2   
   120  116  134 1   
   121  118  119 1   
   122  118  127 1   
   123  118  128 1   
   124  119  120 ar  
   125  119  121 ar  
   126  120  122 ar  
   127  120  129 1   
   128  121  123 ar  
   129  121  130 1   
   130  122  124 ar  
   131  122  131 1   
   132  123  124 ar  
   133  123  132 1   
   134  124  133 1   
   135  134  135 1   
   136  134  140 1   
   137  135  136 1   
   138  135  138 1   
   139  135  141 1   
   140  136  137 2   
   141  136  148 1   
   142  138  139 1   
   143  138  142 1   
   144  138  143 1   
   145  139  140 1   
   146  139  144 1   
   147  139  145 1   
   148  140  146 1   
   149  140  147 1   
   150  148  149 1   
   151  148  157 1   
   152  149  150 1   
   153  149  152 1   
   154  149  158 1   
   155  150  151 2   
   156  150  163 1   
   157  152  153 1   
   158  152  159 1   
   159  152  160 1   
   160  153  154 1   
   161  153  161 1   
   162  153  162 1   
   163  154  155 1   
   164  154  156 1   
   165  163  164 1   
   166  163  168 1   
   167  164  165 1   
   168  164  166 1   
   169  164  167 1   
   170  170  172 1   
   171  170  174 1   
   172  171  173 1   
   173  171  175 1   
   174  176  177 1   
   175  176  178 1   
@<TRIPOS>SUBSTRUCTURE
     1 MOL         1 TEMP              0 ****  ****    0 ROOT
