@<TRIPOS>MOLECULE
MOL
  192   187     1     0     0
SMALL
resp


@<TRIPOS>ATOM
      1 C1         11.6130    6.3960   -2.1230 c3        1 MOL     -0.416822
      2 C2         11.5620    4.9280   -1.5330 c         1 MOL      0.576489
      3 O1         12.5010    4.1390   -1.5450 o         1 MOL     -0.569832
      4 H1         12.2120    6.3990   -3.0340 hc        1 MOL      0.114200
      5 H2         10.6010    6.7310   -2.3520 hc        1 MOL      0.114200
      6 H3         12.0620    7.0670   -1.3910 hc        1 MOL      0.114200
      7 N1         10.4510    4.6100   -0.9260 n         1 MOL     -0.077120
      8 C3         10.3340    3.4080   -0.1170 c3        1 MOL     -0.286769
      9 C4          9.1240    2.5860   -0.6590 c         1 MOL      0.418501
     10 O2          8.0830    3.1650   -0.9850 o         1 MOL     -0.552507
     11 C5         10.0050    3.8050    1.3960 c3        1 MOL      0.066893
     12 C6          9.0380    4.9830    1.7450 c         1 MOL      0.623829
     13 O3          8.9230    5.2680    2.9550 o         1 MOL     -0.673884
     14 O4          8.4040    5.6050    0.8480 o         1 MOL     -0.673884
     15 H4          9.6170    5.1860   -0.9040 hn        1 MOL      0.020505
     16 H5         11.1640    2.6930   -0.0740 h1        1 MOL      0.131752
     17 H6         10.9500    4.1140    1.8550 hc        1 MOL      0.038721
     18 H7          9.6750    2.9700    2.0240 hc        1 MOL      0.038721
     19 N2          9.2570    1.2170   -0.6980 n         1 MOL     -0.329706
     20 C7          8.2450    0.1410   -1.0700 c3        1 MOL     -0.047290
     21 C8          7.4290   -0.2440    0.1530 c         1 MOL      0.711420
     22 O5          7.9910   -0.8970    1.0280 o         1 MOL     -0.597199
     23 C9          8.8690   -1.1650   -1.7490 c3        1 MOL     -0.285347
     24 C10         7.7330   -2.1550   -2.2080 c3        1 MOL      0.040440
     25 C11         8.2750   -3.3490   -2.9930 c3        1 MOL     -0.111141
     26 C12         9.0410   -4.3000   -2.0580 c3        1 MOL      0.147106
     27 N3          9.2540   -5.5870   -2.7570 n4        1 MOL     -0.216923
     28 H8         10.1210    0.8040   -0.3730 hn        1 MOL      0.290038
     29 H9          7.5430    0.5570   -1.7790 h1        1 MOL      0.069468
     30 H10         9.5680   -1.6510   -1.0600 hc        1 MOL      0.104931
     31 H11         9.4730   -0.8330   -2.5840 hc        1 MOL      0.104931
     32 H12         7.0800   -1.6250   -2.8890 hc        1 MOL      0.047530
     33 H13         7.0630   -2.5260   -1.4230 hc        1 MOL      0.047530
     34 H14         9.0800   -3.0410   -3.6530 hc        1 MOL      0.038561
     35 H15         7.4130   -3.8230   -3.4620 hc        1 MOL      0.038561
     36 H16         8.4200   -4.4000   -1.1730 hx        1 MOL      0.054098
     37 H17        10.0360   -3.9830   -1.7370 hx        1 MOL      0.054098
     38 H18         8.5180   -5.7460   -3.4430 hn        1 MOL      0.235718
     39 H19        10.0970   -5.5780   -3.3110 hn        1 MOL      0.235718
     40 H20         9.2810   -6.3670   -2.1150 hn        1 MOL      0.235718
     41 N4          6.1810    0.1560    0.1050 n         1 MOL     -0.480337
     42 C13         5.1680   -0.0010    1.2250 c3        1 MOL      0.203553
     43 C14         3.7770    0.0240    0.5440 c         1 MOL      0.350008
     44 O6          3.7240    0.3370   -0.6710 o         1 MOL     -0.490377
     45 C15         5.1820    1.2070    2.2310 c3        1 MOL      0.063285
     46 C16         5.4060    2.5890    1.4960 c         1 MOL      0.343584
     47 O7          4.5970    2.9370    0.6160 o         1 MOL     -0.589464
     48 O8          6.4440    3.2900    1.7790 o         1 MOL     -0.589464
     49 H21         5.8120    0.4740   -0.7870 hn        1 MOL      0.223656
     50 H22         5.2710   -0.9360    1.7800 h1        1 MOL      0.034642
     51 H23         5.9860    0.9470    2.9120 hc        1 MOL      0.005211
     52 H24         4.3200    1.1280    2.8980 hc        1 MOL      0.005211
     53 N5          2.7260   -0.3430    1.2600 n         1 MOL     -0.398079
     54 C17         2.7530   -1.0480    2.6260 c3        1 MOL     -0.154543
     55 C18         2.9320   -2.6460    2.5440 c         1 MOL      0.525021
     56 O9          3.0860   -3.2180    1.4790 o         1 MOL     -0.503357
     57 H25         1.8650   -0.3740    0.7260 hn        1 MOL      0.321243
     58 H26         1.7440   -0.9260    3.0100 h1        1 MOL      0.128113
     59 H27         3.3480   -0.5810    3.3990 h1        1 MOL      0.128113
     60 N6          2.7900   -3.4070    3.6370 n         1 MOL     -0.350850
     61 C19         2.9420   -4.8910    3.6310 c3        1 MOL     -0.134189
     62 C20         1.8340   -5.4790    2.7300 c         1 MOL      0.508267
     63 O10         0.6420   -5.2390    2.8450 o         1 MOL     -0.502183
     64 C21         2.7200   -5.4920    5.0550 c3        1 MOL     -0.215316
     65 C22         2.9790   -6.9550    5.2440 c         1 MOL      0.654651
     66 O11         2.0960   -7.8130    5.3730 o         1 MOL     -0.627963
     67 O12         4.2170   -7.3640    5.2060 o         1 MOL     -0.627963
     68 H28         2.5420   -2.9690    4.5180 hn        1 MOL      0.272679
     69 H29         3.9590   -5.1990    3.3720 h1        1 MOL      0.098646
     70 H30         1.7750   -5.1880    5.5040 hc        1 MOL      0.080283
     71 H31         3.4240   -4.9830    5.7110 hc        1 MOL      0.080283
     72 N7          2.2400   -6.2280    1.6990 n         1 MOL     -0.164671
     73 C23         1.2800   -6.7820    0.7000 c3        1 MOL     -0.325815
     74 C24         0.7100   -5.8180   -0.3570 c         1 MOL      0.715723
     75 O13        -0.0410   -6.2850   -1.1950 o         1 MOL     -0.607083
     76 H32         3.2350   -6.3980    1.6180 hn        1 MOL      0.206549
     77 H33         0.4740   -7.2380    1.2680 h1        1 MOL      0.147996
     78 H34         1.8830   -7.5050    0.1520 h1        1 MOL      0.147996
     79 N8          1.0260   -4.5450   -0.2800 n         1 MOL     -0.500272
     80 C25         0.8730   -3.5100   -1.3750 c3        1 MOL      0.117827
     81 C26         0.0520   -2.2030   -0.9790 c         1 MOL      0.514961
     82 O14         0.0650   -1.7790    0.1840 o         1 MOL     -0.430120
     83 C27         2.2610   -2.9710   -1.7960 c3        1 MOL      0.270816
     84 C28         3.2890   -4.0350   -2.0820 c3        1 MOL     -0.210618
     85 O15         2.2080   -2.3160   -2.9990 oh        1 MOL     -0.698861
     86 H35         1.6750   -4.2850    0.4470 hn        1 MOL      0.232003
     87 H36         0.4580   -4.0160   -2.2530 h1        1 MOL      0.081990
     88 H37         2.5690   -2.4160   -0.9010 h1        1 MOL      0.004086
     89 H38         3.1000   -2.1650   -3.3260 ho        1 MOL      0.434186
     90 H39         2.9520   -4.7200   -2.8560 hc        1 MOL      0.041503
     91 H40         4.2130   -3.5340   -2.4010 hc        1 MOL      0.041503
     92 H41         3.4870   -4.7280   -1.2640 hc        1 MOL      0.041503
     93 N9         -0.6670   -1.6230   -1.9560 n         1 MOL     -0.502504
     94 C29        -1.4270   -0.4410   -1.7150 c3        1 MOL     -0.141336
     95 C30        -2.7710   -0.7270   -1.1160 c         1 MOL      0.562291
     96 O16        -3.1240   -0.1400   -0.0840 o         1 MOL     -0.514776
     97 C31        -1.6170    0.4220   -3.0100 c3        1 MOL      0.098659
     98 C32        -0.1460    0.5360   -3.6620 c3        1 MOL      0.091156
     99 C33        -2.0560    1.8320   -2.5700 c3        1 MOL     -0.232511
    100 C34        -0.1490    1.3670   -4.9100 c3        1 MOL     -0.431540
    101 H42        -0.7230   -2.1280   -2.8290 hn        1 MOL      0.311017
    102 H43        -0.9470    0.2170   -0.9890 h1        1 MOL      0.118607
    103 H44        -2.3650    0.0450   -3.6970 hc        1 MOL      0.020422
    104 H45         0.2020   -0.4500   -3.9700 hc        1 MOL      0.044439
    105 H46         0.5280    0.9340   -2.8990 hc        1 MOL      0.044439
    106 H47        -1.1710    2.3010   -2.1220 hc        1 MOL      0.067758
    107 H48        -2.2480    2.4020   -3.4820 hc        1 MOL      0.067758
    108 H49        -2.8890    1.9060   -1.8750 hc        1 MOL      0.067758
    109 H50         0.6120    0.8730   -5.5110 hc        1 MOL      0.101678
    110 H51        -1.1220    1.4530   -5.4000 hc        1 MOL      0.101678
    111 H52         0.2340    2.3610   -4.6470 hc        1 MOL      0.101678
    112 N10        -3.4520   -1.7070   -1.6440 n         1 MOL     -0.434045
    113 C35        -4.5580   -2.3870   -0.8890 c3        1 MOL     -0.015006
    114 C36        -5.7220   -2.8790   -1.6890 c         1 MOL      0.646727
    115 O17        -5.5700   -3.2840   -2.8240 o         1 MOL     -0.533398
    116 C37        -3.9780   -3.5230    0.0340 c3        1 MOL      0.161518
    117 C38        -3.0110   -4.5200   -0.6430 c3        1 MOL     -0.016446
    118 O18        -3.3410   -2.8760    1.1580 oh        1 MOL     -0.497975
    119 H53        -3.1390   -2.1180   -2.5140 hn        1 MOL      0.269231
    120 H54        -4.9060   -1.6060   -0.2090 h1        1 MOL      0.096819
    121 H55        -4.8750   -4.0730    0.3260 h1        1 MOL     -0.011270
    122 H56        -3.2050   -3.6180    1.7530 ho        1 MOL      0.361786
    123 H57        -3.5410   -5.0720   -1.4140 hc        1 MOL      0.018769
    124 H58        -2.1850   -4.0620   -1.1820 hc        1 MOL      0.018769
    125 H59        -2.6860   -5.3380   -0.0070 hc        1 MOL      0.018769
    126 N11        -6.9600   -2.6010   -1.2250 n         1 MOL     -0.542563
    127 C39        -8.1430   -2.5590   -2.0800 c3        1 MOL     -0.098097
    128 C40        -8.8740   -1.2770   -2.0730 c         1 MOL      0.744887
    129 O19        -9.2180   -0.7360   -3.1040 o         1 MOL     -0.575874
    130 C41        -9.1270   -3.7190   -1.7460 c3        1 MOL      0.226170
    131 C42       -10.4140   -3.7760   -2.6330 c3        1 MOL     -0.484592
    132 O20        -9.4160   -3.6070   -0.3860 oh        1 MOL     -0.595158
    133 H60        -7.0560   -2.1630   -0.3200 hn        1 MOL      0.306990
    134 H61        -7.7590   -2.6250   -3.0990 h1        1 MOL      0.122895
    135 H62        -8.6290   -4.6880   -1.7640 h1        1 MOL      0.071071
    136 H63        -9.4830   -4.4990   -0.0300 ho        1 MOL      0.403433
    137 H64       -10.1310   -4.1380   -3.6220 hc        1 MOL      0.135082
    138 H65       -11.1020   -4.5790   -2.3860 hc        1 MOL      0.135082
    139 H66       -11.0130   -2.8710   -2.5640 hc        1 MOL      0.135082
    140 N12        -9.1930   -0.7270   -0.8420 n         1 MOL     -0.593080
    141 C43        -9.9700    0.5340   -0.5890 c3        1 MOL      0.002960
    142 C44        -9.3400    1.3140    0.5930 c         1 MOL      0.609040
    143 O21        -9.2370    0.7090    1.6870 o         1 MOL     -0.531333
    144 C45       -11.5280    0.1890   -0.4520 c3        1 MOL      0.045152
    145 C46       -12.3310    1.5220   -0.5710 c3        1 MOL      0.051200
    146 C47       -13.7760    1.3180   -0.1860 c3        1 MOL     -0.189293
    147 C48       -14.5130    2.6380   -0.1610 c3        1 MOL      0.183068
    148 N13       -15.8670    2.5300    0.4140 n4        1 MOL     -0.195436
    149 H67        -8.8450   -1.2420   -0.0470 hn        1 MOL      0.311561
    150 H68        -9.9080    1.2700   -1.3960 h1        1 MOL      0.070596
    151 H69       -11.7560   -0.3290    0.4870 hc        1 MOL      0.037671
    152 H70       -11.8470   -0.4670   -1.2650 hc        1 MOL      0.037671
    153 H71       -12.1970    1.8760   -1.5980 hc        1 MOL      0.016740
    154 H72       -11.8690    2.2170    0.1370 hc        1 MOL      0.016740
    155 H73       -13.7500    0.8610    0.7970 hc        1 MOL      0.046998
    156 H74       -14.2500    0.7010   -0.9460 hc        1 MOL      0.046998
    157 H75       -14.5620    2.9940   -1.1840 hx        1 MOL      0.046056
    158 H76       -13.9540    3.3820    0.3990 hx        1 MOL      0.046056
    159 H77       -16.3550    1.7220    0.0460 hn        1 MOL      0.269384
    160 H78       -15.7660    2.1220    1.3410 hn        1 MOL      0.269384
    161 H79       -16.4610    3.3290    0.2520 hn        1 MOL      0.269384
    162 N14        -9.1750    2.6020    0.4920 n         1 MOL     -0.569075
    163 C49        -8.6100    3.5310    1.4940 c3        1 MOL      0.479121
    164 C50        -7.0740    3.4830    1.5480 c         1 MOL      0.244499
    165 O22        -6.4190    3.1560    2.6000 o         1 MOL     -0.503676
    166 C51        -9.2920    4.9280    1.4410 c3        1 MOL     -0.096439
    167 C52        -8.9200    5.8300    2.6720 c3        1 MOL     -0.196971
    168 C53        -9.8150    7.1280    2.5880 c         1 MOL      0.680269
    169 O23       -10.5480    7.2780    3.5690 o         1 MOL     -0.715695
    170 O24        -9.9220    7.8520    1.5540 o         1 MOL     -0.715695
    171 H80        -9.5570    3.0290   -0.3390 hn        1 MOL      0.234549
    172 H81        -8.9220    3.0560    2.4300 h1        1 MOL     -0.020165
    173 H82       -10.3400    4.6720    1.5360 hc        1 MOL      0.017953
    174 H83        -9.1470    5.3640    0.4510 hc        1 MOL      0.017953
    175 H84        -7.8740    6.1400    2.6920 hc        1 MOL      0.045244
    176 H85        -9.1130    5.3700    3.6400 hc        1 MOL      0.045244
    177 N15        -6.3070    3.7710    0.4580 n         1 MOL     -0.280653
    178 C54        -6.5580    4.3940   -0.8430 c3        1 MOL     -0.158170
    179 H86        -5.8250    4.0340   -1.5650 h1        1 MOL      0.082598
    180 H87        -7.5610    4.1340   -1.1830 h1        1 MOL      0.082598
    181 H88        -6.4750    5.4770   -0.7490 h1        1 MOL      0.082598
    182 H89        -5.3410    3.7440    0.7600 hn        1 MOL      0.289599
    183 Ca1         6.2440    5.0160   -0.2300 Ca        1 MOL      1.747265
    184 O25         3.6220    5.6650   -0.4230 oh        1 MOL     -0.849021
    185 H90         3.2960    5.9880    0.4230 ho        1 MOL      0.423708
    186 H91         3.1240    4.8570   -0.5760 ho        1 MOL      0.423708
    187 O26         5.6670    3.4950   -2.4890 oh        1 MOL     -0.849021
    188 H92         6.5600    3.3760   -2.7900 ho        1 MOL      0.423708
    189 H93         5.2230    2.6760   -2.7070 ho        1 MOL      0.423708
    190 O27         5.4240    6.0910    2.0340 oh        1 MOL     -0.849021
    191 H94         6.0840    6.4680    2.6300 ho        1 MOL      0.423708
    192 H95         4.8100    5.6460    2.6150 ho        1 MOL      0.423708
@<TRIPOS>BOND
     1    1    2 1   
     2    1    4 1   
     3    1    5 1   
     4    1    6 1   
     5    2    3 2   
     6    2    7 1   
     7    7    8 1   
     8    7   15 1   
     9    8    9 1   
    10    8   11 1   
    11    8   16 1   
    12    9   10 2   
    13    9   19 1   
    14   11   12 1   
    15   11   17 1   
    16   11   18 1   
    17   12   13 1   
    18   12   14 1   
    19   19   20 1   
    20   19   28 1   
    21   20   21 1   
    22   20   23 1   
    23   20   29 1   
    24   21   22 2   
    25   21   41 1   
    26   23   24 1   
    27   23   30 1   
    28   23   31 1   
    29   24   25 1   
    30   24   32 1   
    31   24   33 1   
    32   25   26 1   
    33   25   34 1   
    34   25   35 1   
    35   26   27 1   
    36   26   36 1   
    37   26   37 1   
    38   27   38 1   
    39   27   39 1   
    40   27   40 1   
    41   41   42 1   
    42   41   49 1   
    43   42   43 1   
    44   42   45 1   
    45   42   50 1   
    46   43   44 2   
    47   43   53 1   
    48   45   46 1   
    49   45   51 1   
    50   45   52 1   
    51   46   47 1   
    52   46   48 1   
    53   53   54 1   
    54   53   57 1   
    55   54   55 1   
    56   54   58 1   
    57   54   59 1   
    58   55   56 2   
    59   55   60 1   
    60   60   61 1   
    61   60   68 1   
    62   61   62 1   
    63   61   64 1   
    64   61   69 1   
    65   62   63 2   
    66   62   72 1   
    67   64   65 1   
    68   64   70 1   
    69   64   71 1   
    70   65   66 1   
    71   65   67 1   
    72   72   73 1   
    73   72   76 1   
    74   73   74 1   
    75   73   77 1   
    76   73   78 1   
    77   74   75 2   
    78   74   79 1   
    79   79   80 1   
    80   79   86 1   
    81   80   81 1   
    82   80   83 1   
    83   80   87 1   
    84   81   82 2   
    85   81   93 1   
    86   83   84 1   
    87   83   85 1   
    88   83   88 1   
    89   84   90 1   
    90   84   91 1   
    91   84   92 1   
    92   85   89 1   
    93   93   94 1   
    94   93  101 1   
    95   94   95 1   
    96   94   97 1   
    97   94  102 1   
    98   95   96 2   
    99   95  112 1   
   100   97   98 1   
   101   97   99 1   
   102   97  103 1   
   103   98  100 1   
   104   98  104 1   
   105   98  105 1   
   106   99  106 1   
   107   99  107 1   
   108   99  108 1   
   109  100  109 1   
   110  100  110 1   
   111  100  111 1   
   112  112  113 1   
   113  112  119 1   
   114  113  114 1   
   115  113  116 1   
   116  113  120 1   
   117  114  115 2   
   118  114  126 1   
   119  116  117 1   
   120  116  118 1   
   121  116  121 1   
   122  117  123 1   
   123  117  124 1   
   124  117  125 1   
   125  118  122 1   
   126  126  127 1   
   127  126  133 1   
   128  127  128 1   
   129  127  130 1   
   130  127  134 1   
   131  128  129 2   
   132  128  140 1   
   133  130  131 1   
   134  130  132 1   
   135  130  135 1   
   136  131  137 1   
   137  131  138 1   
   138  131  139 1   
   139  132  136 1   
   140  140  141 1   
   141  140  149 1   
   142  141  142 1   
   143  141  144 1   
   144  141  150 1   
   145  142  143 2   
   146  142  162 1   
   147  144  145 1   
   148  144  151 1   
   149  144  152 1   
   150  145  146 1   
   151  145  153 1   
   152  145  154 1   
   153  146  147 1   
   154  146  155 1   
   155  146  156 1   
   156  147  148 1   
   157  147  157 1   
   158  147  158 1   
   159  148  159 1   
   160  148  160 1   
   161  148  161 1   
   162  162  163 1   
   163  162  171 1   
   164  163  164 1   
   165  163  166 1   
   166  163  172 1   
   167  164  165 2   
   168  164  177 1   
   169  166  167 1   
   170  166  173 1   
   171  166  174 1   
   172  167  168 1   
   173  167  175 1   
   174  167  176 1   
   175  168  169 1   
   176  168  170 1   
   177  177  178 1   
   178  177  182 1   
   179  178  179 1   
   180  178  180 1   
   181  178  181 1   
   182  184  185 1   
   183  184  186 1   
   184  187  188 1   
   185  187  189 1   
   186  190  191 1   
   187  190  192 1   
@<TRIPOS>SUBSTRUCTURE
     1 MOL         1 TEMP              0 ****  ****    0 ROOT
