@<TRIPOS>MOLECULE
MOL
  201   193     1     0     0
SMALL
resp


@<TRIPOS>ATOM
      1 C1        -12.0150   -3.5160   -4.5700 c3        1 MOL     -0.430361
      2 C2        -11.4000   -3.2490   -3.1840 c         1 MOL      0.708272
      3 O1        -12.0530   -2.7040   -2.2820 o         1 MOL     -0.635645
      4 H1        -13.0710   -3.7630   -4.4570 hc        1 MOL      0.111654
      5 H2        -11.9160   -2.6250   -5.1910 hc        1 MOL      0.111654
      6 H3        -11.4960   -4.3490   -5.0440 hc        1 MOL      0.111654
      7 N1        -10.2230   -3.6720   -2.9300 n         1 MOL     -0.556558
      8 C3         -9.4740   -3.5470   -1.5850 c3        1 MOL      0.214191
      9 C4         -8.0210   -3.0090   -1.8670 c         1 MOL      0.444531
     10 O2         -7.5650   -2.8260   -2.9950 o         1 MOL     -0.499529
     11 C5         -9.3530   -4.8850   -0.8000 c3        1 MOL     -0.080486
     12 C6         -9.3280   -6.1880   -1.5740 c         1 MOL      0.715540
     13 O3         -9.6630   -7.2630   -1.0570 o         1 MOL     -0.641180
     14 O4         -8.7050   -6.2240   -2.6660 o         1 MOL     -0.641180
     15 H4         -9.7580   -4.1620   -3.6850 hn        1 MOL      0.286924
     16 H5         -9.9600   -2.8120   -0.9550 h1        1 MOL      0.036043
     17 H6        -10.2580   -4.9610   -0.2030 hc        1 MOL      0.002457
     18 H7         -8.4760   -4.9250   -0.1520 hc        1 MOL      0.002457
     19 N2         -7.5040   -2.4020   -0.7490 n         1 MOL     -0.360077
     20 C7         -6.2880   -1.5950   -0.7340 c3        1 MOL      0.145280
     21 C8         -5.4030   -1.8750    0.4910 c         1 MOL      0.356412
     22 O5         -5.9060   -2.3230    1.5340 o         1 MOL     -0.484210
     23 C9         -6.6760   -0.1320   -0.8780 c3        1 MOL     -0.168573
     24 C10        -7.2160    0.5520    0.4030 c3        1 MOL     -0.015285
     25 C11        -7.2120    2.0530   -0.0140 c3        1 MOL      0.019740
     26 C12        -7.6330    2.9670    1.1140 c3        1 MOL     -0.044420
     27 N3         -7.1370    4.3440    0.9210 n4        1 MOL     -0.206638
     28 H8         -8.0180   -2.3000    0.1040 hn        1 MOL      0.205469
     29 H9         -5.6910   -1.8770   -1.5980 h1        1 MOL      0.052624
     30 H10        -7.4180    0.0470   -1.6590 hc        1 MOL      0.045112
     31 H11        -5.7900    0.4240   -1.2010 hc        1 MOL      0.045112
     32 H12        -6.5600    0.4100    1.2680 hc        1 MOL      0.058654
     33 H13        -8.2390    0.2500    0.5870 hc        1 MOL      0.058654
     34 H14        -7.8650    2.2890   -0.8530 hc        1 MOL      0.022093
     35 H15        -6.2060    2.3580   -0.2910 hc        1 MOL      0.022093
     36 H16        -7.1550    2.5000    1.9820 hx        1 MOL      0.084812
     37 H17        -8.7180    3.0180    1.2640 hx        1 MOL      0.084812
     38 H18        -7.4650    5.0220    1.6000 hn        1 MOL      0.285292
     39 H19        -6.1380    4.3510    1.0270 hn        1 MOL      0.285292
     40 H20        -7.4040    4.6920    0.0170 hn        1 MOL      0.285292
     41 N4         -4.1600   -1.4810    0.3610 n         1 MOL     -0.257817
     42 C13        -3.0220   -1.7520    1.2670 c3        1 MOL      0.034924
     43 C14        -1.8360   -0.7210    1.2780 c         1 MOL      0.657018
     44 O6         -0.6730   -1.0400    1.0830 o         1 MOL     -0.650889
     45 C15        -2.5060   -3.1720    0.9260 c3        1 MOL     -0.236193
     46 C16        -1.4670   -3.7480    1.9320 c         1 MOL      0.835124
     47 O7         -0.8090   -4.7160    1.4490 o         1 MOL     -0.771013
     48 O8         -1.2120   -3.2510    3.0620 o         1 MOL     -0.771013
     49 H21        -3.9890   -1.2970   -0.6170 hn        1 MOL      0.237323
     50 H22        -3.3500   -1.8410    2.3060 h1        1 MOL      0.079409
     51 H23        -2.0910   -3.1800   -0.0820 hc        1 MOL      0.090316
     52 H24        -3.3340   -3.8800    1.0180 hc        1 MOL      0.090316
     53 N5         -2.0530    0.5220    1.5680 n         1 MOL     -0.594734
     54 C17        -3.2800    1.1600    1.9840 c3        1 MOL     -0.324615
     55 C18        -3.1880    2.6710    2.4080 c         1 MOL      0.785271
     56 O9         -4.2350    3.3190    2.2620 o         1 MOL     -0.633469
     57 H25        -1.2180    1.0850    1.4620 hn        1 MOL      0.409077
     58 H26        -3.5620    0.6310    2.8930 h1        1 MOL      0.141086
     59 H27        -4.0100    0.9470    1.2070 h1        1 MOL      0.141086
     60 N6         -2.0280    3.1370    2.8700 n         1 MOL     -0.485947
     61 C19        -1.9090    4.4520    3.5240 c3        1 MOL     -0.025951
     62 C20        -0.7140    5.1720    2.8910 c         1 MOL      0.542799
     63 O10         0.2060    4.4930    2.3820 o         1 MOL     -0.406675
     64 C21        -1.7230    4.3770    5.0920 c3        1 MOL     -0.030440
     65 C22        -0.4680    3.5600    5.3640 c         1 MOL      0.640087
     66 O11         0.4620    4.1790    5.8390 o         1 MOL     -0.664877
     67 O12        -0.3840    2.2610    5.2850 o         1 MOL     -0.664877
     68 H28        -1.2130    2.5390    2.8650 hn        1 MOL      0.164205
     69 H29        -2.8430    5.0180    3.4510 h1        1 MOL      0.035118
     70 H30        -2.5790    3.8660    5.5380 hc        1 MOL      0.026685
     71 H31        -1.5570    5.3710    5.5010 hc        1 MOL      0.026685
     72 N7         -0.7920    6.4970    2.8410 n         1 MOL     -0.316929
     73 C23         0.2760    7.3730    2.3310 c3        1 MOL     -0.317607
     74 C24         0.6240    7.2400    0.9110 c         1 MOL      0.550495
     75 O13         1.7010    7.5350    0.4710 o         1 MOL     -0.530083
     76 H32        -1.5710    6.9250    3.3200 hn        1 MOL      0.262708
     77 H33         1.1940    7.2360    2.8960 h1        1 MOL      0.177296
     78 H34        -0.0550    8.4060    2.4120 h1        1 MOL      0.177296
     79 N8         -0.3650    6.7900    0.1700 n         1 MOL     -0.367815
     80 C25        -0.2560    6.5590   -1.2820 c3        1 MOL      0.099377
     81 C26        -0.3720    5.0340   -1.5310 c         1 MOL      0.529398
     82 O14        -1.0950    4.3140   -0.8080 o         1 MOL     -0.539894
     83 C27        -1.3640    7.3030   -2.0700 c3        1 MOL      0.300138
     84 C28        -1.3910    8.8830   -2.0180 c3        1 MOL     -0.451820
     85 O15        -1.2480    7.0450   -3.4800 oh        1 MOL     -0.634624
     86 H35        -1.1960    6.4140    0.6050 hn        1 MOL      0.172783
     87 H36         0.6510    7.0160   -1.6740 h1        1 MOL      0.062847
     88 H37        -2.3010    6.8710   -1.7540 h1        1 MOL      0.002766
     89 H38        -1.9130    7.4960   -4.0050 ho        1 MOL      0.412320
     90 H39        -2.0510    9.1820   -1.2060 hc        1 MOL      0.123650
     91 H40        -0.4450    9.4240   -1.9480 hc        1 MOL      0.123650
     92 H41        -1.9600    9.2280   -2.8820 hc        1 MOL      0.123650
     93 N9          0.2990    4.5330   -2.5880 n         1 MOL     -0.468612
     94 C29         0.2580    3.1120   -3.0200 c3        1 MOL      0.135031
     95 C30         1.5250    2.4160   -2.3920 c         1 MOL      0.453841
     96 O16         1.5180    1.2380   -2.0140 o         1 MOL     -0.576206
     97 C31         0.2740    2.9550   -4.5060 c3        1 MOL      0.128070
     98 C32        -0.6970    3.8430   -5.2540 c3        1 MOL     -0.186629
     99 C33         0.0090    1.4710   -4.7910 c3        1 MOL     -0.257040
    100 C34        -2.2230    3.8480   -5.0480 c3        1 MOL     -0.259643
    101 H42         0.8530    5.1940   -3.1090 hn        1 MOL      0.305804
    102 H43        -0.5270    2.5500   -2.5340 h1        1 MOL      0.074704
    103 H44         1.2640    3.1170   -4.9000 hc        1 MOL     -0.032175
    104 H45        -0.6090    3.6430   -6.3190 hc        1 MOL      0.075712
    105 H46        -0.3030    4.8410   -5.0680 hc        1 MOL      0.075712
    106 H47         0.8640    0.8410   -4.5450 hc        1 MOL      0.082168
    107 H48        -0.8620    1.1660   -4.2190 hc        1 MOL      0.082168
    108 H49        -0.1760    1.3050   -5.8560 hc        1 MOL      0.082168
    109 H50        -2.5000    3.9830   -4.0000 hc        1 MOL      0.076077
    110 H51        -2.6610    4.6310   -5.6620 hc        1 MOL      0.076077
    111 H52        -2.4400    2.8190   -5.3400 hc        1 MOL      0.076077
    112 N10         2.5750    3.2100   -2.1800 n         1 MOL     -0.160289
    113 C35         3.7920    2.8310   -1.4180 c3        1 MOL     -0.156323
    114 C36         4.9890    2.5150   -2.2810 c         1 MOL      0.494439
    115 O17         5.3740    3.3680   -3.0250 o         1 MOL     -0.534901
    116 C37         4.2690    3.8330   -0.3710 c3        1 MOL      0.493188
    117 C38         3.1680    4.3590    0.5220 c3        1 MOL     -0.236505
    118 O18         5.1690    3.2820    0.6120 oh        1 MOL     -0.692893
    119 H53         2.5140    4.0910   -2.6610 hn        1 MOL      0.148622
    120 H54         3.5660    1.8670   -0.9520 h1        1 MOL      0.137690
    121 H55         4.6870    4.7430   -0.8040 h1        1 MOL      0.033560
    122 H56         4.8820    2.4500    0.9810 ho        1 MOL      0.415462
    123 H57         2.4320    4.8430   -0.1290 hc        1 MOL      0.046527
    124 H58         2.6660    3.4780    0.9250 hc        1 MOL      0.046527
    125 H59         3.6310    5.0900    1.1730 hc        1 MOL      0.046527
    126 N11         5.6720    1.3580   -2.0470 n         1 MOL     -0.360877
    127 C39         6.8890    0.8970   -2.7310 c3        1 MOL      0.025472
    128 C40         6.9740   -0.6490   -2.7560 c         1 MOL      0.486987
    129 O19         7.2900   -1.2440   -3.7890 o         1 MOL     -0.572879
    130 C41         8.2070    1.5300   -2.0710 c3        1 MOL      0.266484
    131 C42         9.5580    0.9680   -2.5390 c3        1 MOL     -0.335496
    132 O20         7.9660    1.0180   -0.7930 oh        1 MOL     -0.582980
    133 H60         5.3640    0.7710   -1.2810 hn        1 MOL      0.149762
    134 H61         7.0190    1.1750   -3.7730 h1        1 MOL      0.082103
    135 H62         8.1720    2.6200   -2.1270 h1        1 MOL      0.056392
    136 H63         7.8980    1.7980   -0.2290 ho        1 MOL      0.375406
    137 H64         9.5990    1.0190   -3.6230 hc        1 MOL      0.093888
    138 H65        10.4530    1.4940   -2.2050 hc        1 MOL      0.093888
    139 H66         9.6400   -0.0650   -2.1740 hc        1 MOL      0.093888
    140 N12         6.6680   -1.2670   -1.6250 n         1 MOL     -0.278425
    141 C43         6.3900   -2.7110   -1.4340 c3        1 MOL      0.107160
    142 C44         5.1570   -2.8730   -0.6060 c         1 MOL      0.474336
    143 O21         4.7800   -1.9890    0.1440 o         1 MOL     -0.487380
    144 C45         7.6490   -3.4210   -0.8260 c3        1 MOL     -0.240924
    145 C46         8.9360   -3.2840   -1.6290 c3        1 MOL      0.263019
    146 C47        10.0910   -4.0230   -1.0140 c3        1 MOL     -0.117989
    147 C48        11.2230   -4.1610   -1.9910 c3        1 MOL      0.143657
    148 N13        12.1640   -5.2670   -1.7710 n4        1 MOL     -0.292049
    149 H67         6.7090   -0.6770   -0.8020 hn        1 MOL      0.235749
    150 H68         6.1390   -3.1340   -2.4060 h1        1 MOL      0.073670
    151 H69         7.3830   -4.4680   -0.7600 hc        1 MOL      0.069570
    152 H70         7.7550   -3.0120    0.1810 hc        1 MOL      0.069570
    153 H71         9.1860   -2.2340   -1.7880 hc        1 MOL     -0.037369
    154 H72         8.7830   -3.8380   -2.5570 hc        1 MOL     -0.037369
    155 H73         9.7810   -5.0400   -0.7890 hc        1 MOL      0.042057
    156 H74        10.3930   -3.4940   -0.1110 hc        1 MOL      0.042057
    157 H75        11.7470   -3.2530   -2.2820 hx        1 MOL      0.040470
    158 H76        10.7890   -4.4000   -2.9600 hx        1 MOL      0.040470
    159 H77        11.6840   -6.1510   -1.8090 hn        1 MOL      0.245112
    160 H78        12.9340   -5.2530   -2.4150 hn        1 MOL      0.245112
    161 H79        12.4620   -5.2400   -0.8030 hn        1 MOL      0.245112
    162 N14         4.3550   -3.9630   -0.8080 n         1 MOL     -0.633669
    163 C49         3.2660   -4.3620    0.1080 c3        1 MOL      0.478289
    164 C50         2.0990   -3.3400   -0.0760 c         1 MOL      0.216019
    165 O22         1.7960   -2.6880    0.9090 o         1 MOL     -0.442664
    166 C51         2.8020   -5.8210   -0.0120 c3        1 MOL     -0.446809
    167 C52         3.8630   -6.7950    0.4960 c3        1 MOL     -0.097693
    168 C53         4.2990   -6.5800    1.9090 c         1 MOL      0.757115
    169 O23         5.5330   -6.8320    2.1360 o         1 MOL     -0.722780
    170 O24         3.4220   -6.3570    2.7850 o         1 MOL     -0.722780
    171 H80         4.5860   -4.5910   -1.5610 hn        1 MOL      0.324448
    172 H81         3.6220   -4.1680    1.1180 h1        1 MOL      0.022067
    173 H82         2.6600   -6.0700   -1.0660 hc        1 MOL      0.190020
    174 H83         1.8530   -5.9710    0.5180 hc        1 MOL      0.190020
    175 H84         4.7610   -6.7490   -0.1200 hc        1 MOL     -0.003517
    176 H85         3.3280   -7.7480    0.4330 hc        1 MOL     -0.003517
    177 N15         1.5320   -3.0790   -1.2740 n         1 MOL     -0.274780
    178 C54         1.5310   -3.9770   -2.4760 c3        1 MOL     -0.100854
    179 H86         0.5140   -4.0770   -2.8550 h1        1 MOL      0.053403
    180 H87         2.1660   -3.5470   -3.2520 h1        1 MOL      0.053403
    181 H88         1.9120   -4.9590   -2.1970 h1        1 MOL      0.053403
    182 H89         1.0380   -2.2120   -1.3770 hn        1 MOL      0.299104
    183 Ca1         0.9770   -1.9280    3.2600 Ca        1 MOL      1.785428
    184 O25         3.4830   -2.5900    3.7610 oh        1 MOL     -0.825728
    185 H90         4.2160   -2.3160    3.2110 ho        1 MOL      0.401877
    186 H91         3.8900   -3.0880    4.4720 ho        1 MOL      0.401877
    187 O26         2.1990   -0.3650    5.0240 oh        1 MOL     -0.825728
    188 H92         2.9180   -0.4100    5.6550 ho        1 MOL      0.401877
    189 H93         1.7150    0.4240    5.2670 ho        1 MOL      0.401877
    190 O27         0.4570   -2.9910    5.9150 oh        1 MOL     -0.825728
    191 H94         0.8400   -3.7540    6.3340 ho        1 MOL      0.401877
    192 H95         0.0590   -2.4910    6.6310 ho        1 MOL      0.401877
    193 O28        -0.8890   -0.1400    4.3870 oh        1 MOL     -0.825728
    194 H96        -0.7360    0.7890    4.5480 ho        1 MOL      0.401877
    195 H97        -1.5990   -0.3700    4.9860 ho        1 MOL      0.401877
    196 O29         1.3250   -4.6050    3.1220 oh        1 MOL     -0.825728
    197 H98         1.9480   -5.3250    2.9660 ho        1 MOL      0.401877
    198 H99         0.5560   -4.8440    2.5990 ho        1 MOL      0.401877
    199 O30         1.7050    0.1350    1.8100 oh        1 MOL     -0.825728
    200 H100        2.4530    0.6590    1.5090 ho        1 MOL      0.401877
    201 H101        0.9420    0.5950    1.4490 ho        1 MOL      0.401877
@<TRIPOS>BOND
     1    1    2 1   
     2    1    4 1   
     3    1    5 1   
     4    1    6 1   
     5    2    3 2   
     6    2    7 1   
     7    7    8 1   
     8    7   15 1   
     9    8    9 1   
    10    8   11 1   
    11    8   16 1   
    12    9   10 2   
    13    9   19 1   
    14   11   12 1   
    15   11   17 1   
    16   11   18 1   
    17   12   13 1   
    18   12   14 1   
    19   19   20 1   
    20   19   28 1   
    21   20   21 1   
    22   20   23 1   
    23   20   29 1   
    24   21   22 2   
    25   21   41 1   
    26   23   24 1   
    27   23   30 1   
    28   23   31 1   
    29   24   25 1   
    30   24   32 1   
    31   24   33 1   
    32   25   26 1   
    33   25   34 1   
    34   25   35 1   
    35   26   27 1   
    36   26   36 1   
    37   26   37 1   
    38   27   38 1   
    39   27   39 1   
    40   27   40 1   
    41   41   42 1   
    42   41   49 1   
    43   42   43 1   
    44   42   45 1   
    45   42   50 1   
    46   43   44 2   
    47   43   53 1   
    48   45   46 1   
    49   45   51 1   
    50   45   52 1   
    51   46   47 1   
    52   46   48 1   
    53   53   54 1   
    54   53   57 1   
    55   54   55 1   
    56   54   58 1   
    57   54   59 1   
    58   55   56 2   
    59   55   60 1   
    60   60   61 1   
    61   60   68 1   
    62   61   62 1   
    63   61   64 1   
    64   61   69 1   
    65   62   63 2   
    66   62   72 1   
    67   64   65 1   
    68   64   70 1   
    69   64   71 1   
    70   65   66 1   
    71   65   67 1   
    72   72   73 1   
    73   72   76 1   
    74   73   74 1   
    75   73   77 1   
    76   73   78 1   
    77   74   75 2   
    78   74   79 1   
    79   79   80 1   
    80   79   86 1   
    81   80   81 1   
    82   80   83 1   
    83   80   87 1   
    84   81   82 2   
    85   81   93 1   
    86   83   84 1   
    87   83   85 1   
    88   83   88 1   
    89   84   90 1   
    90   84   91 1   
    91   84   92 1   
    92   85   89 1   
    93   93   94 1   
    94   93  101 1   
    95   94   95 1   
    96   94   97 1   
    97   94  102 1   
    98   95   96 2   
    99   95  112 1   
   100   97   98 1   
   101   97   99 1   
   102   97  103 1   
   103   98  100 1   
   104   98  104 1   
   105   98  105 1   
   106   99  106 1   
   107   99  107 1   
   108   99  108 1   
   109  100  109 1   
   110  100  110 1   
   111  100  111 1   
   112  112  113 1   
   113  112  119 1   
   114  113  114 1   
   115  113  116 1   
   116  113  120 1   
   117  114  115 2   
   118  114  126 1   
   119  116  117 1   
   120  116  118 1   
   121  116  121 1   
   122  117  123 1   
   123  117  124 1   
   124  117  125 1   
   125  118  122 1   
   126  126  127 1   
   127  126  133 1   
   128  127  128 1   
   129  127  130 1   
   130  127  134 1   
   131  128  129 2   
   132  128  140 1   
   133  130  131 1   
   134  130  132 1   
   135  130  135 1   
   136  131  137 1   
   137  131  138 1   
   138  131  139 1   
   139  132  136 1   
   140  140  141 1   
   141  140  149 1   
   142  141  142 1   
   143  141  144 1   
   144  141  150 1   
   145  142  143 2   
   146  142  162 1   
   147  144  145 1   
   148  144  151 1   
   149  144  152 1   
   150  145  146 1   
   151  145  153 1   
   152  145  154 1   
   153  146  147 1   
   154  146  155 1   
   155  146  156 1   
   156  147  148 1   
   157  147  157 1   
   158  147  158 1   
   159  148  159 1   
   160  148  160 1   
   161  148  161 1   
   162  162  163 1   
   163  162  171 1   
   164  163  164 1   
   165  163  166 1   
   166  163  172 1   
   167  164  165 2   
   168  164  177 1   
   169  166  167 1   
   170  166  173 1   
   171  166  174 1   
   172  167  168 1   
   173  167  175 1   
   174  167  176 1   
   175  168  169 1   
   176  168  170 1   
   177  177  178 1   
   178  177  182 1   
   179  178  179 1   
   180  178  180 1   
   181  178  181 1   
   182  184  185 1   
   183  184  186 1   
   184  187  188 1   
   185  187  189 1   
   186  190  191 1   
   187  190  192 1   
   188  193  194 1   
   189  193  195 1   
   190  196  197 1   
   191  196  198 1   
   192  199  200 1   
   193  199  201 1   
@<TRIPOS>SUBSTRUCTURE
     1 MOL         1 TEMP              0 ****  ****    0 ROOT
