@<TRIPOS>MOLECULE
MOL
  181   177     1     0     0
SMALL
resp


@<TRIPOS>ATOM
      1 C1          0.9430    6.6920   -1.5170 c3        1 MOL     -0.342332
      2 C2          2.3850    6.6220   -1.1190 c         1 MOL      0.754787
      3 O1          2.6790    7.0650    0.0200 o         1 MOL     -0.617885
      4 H1          0.3200    6.6850   -0.6220 hc        1 MOL      0.083009
      5 H2          0.7650    7.6110   -2.0750 hc        1 MOL      0.083009
      6 H3          0.6950    5.8330   -2.1390 hc        1 MOL      0.083009
      7 N1          3.3710    6.3900   -2.0160 n         1 MOL     -0.689792
      8 C3          4.8120    6.2200   -1.7050 c3        1 MOL      0.436895
      9 C4          5.0020    4.9200   -0.9060 c         1 MOL      0.545402
     10 O2          5.1640    3.7990   -1.3550 o         1 MOL     -0.555610
     11 C5          5.6950    6.4340   -2.9150 c3        1 MOL     -0.434266
     12 C6          7.1790    6.5490   -2.4600 c         1 MOL      0.833007
     13 O3          8.0320    6.9170   -3.2810 o         1 MOL     -0.754084
     14 O4          7.4970    6.3770   -1.2760 o         1 MOL     -0.754084
     15 H4          3.0790    6.0630   -2.9240 hn        1 MOL      0.303356
     16 H5          5.1590    7.0270   -1.0620 h1        1 MOL     -0.001113
     17 H6          5.4110    7.3190   -3.4780 hc        1 MOL      0.060736
     18 H7          5.7620    5.5160   -3.5010 hc        1 MOL      0.060736
     19 N2          4.8080    5.1540    0.4110 n         1 MOL     -0.687813
     20 C7          4.7250    4.0920    1.4220 c3        1 MOL      0.589075
     21 C8          3.3880    3.4330    1.4840 c         1 MOL      0.596883
     22 O5          2.3610    4.0520    1.1020 o         1 MOL     -0.604347
     23 C9          5.2510    4.5610    2.7770 c3        1 MOL     -0.474602
     24 H8          4.6320    6.1020    0.7030 hn        1 MOL      0.326365
     25 H9          5.4100    3.2790    1.1710 h1        1 MOL     -0.025870
     26 H10         5.3040    3.7910    3.5540 hc        1 MOL      0.110761
     27 H11         6.2530    4.9630    2.7230 hc        1 MOL      0.110761
     28 H12         4.5780    5.3610    3.1050 hc        1 MOL      0.110761
     29 N3          3.2610    2.1190    1.8280 n         1 MOL     -0.689291
     30 C10         4.1330    1.2100    2.5590 c3        1 MOL      0.137614
     31 C11         4.5030   -0.1160    1.8530 c         1 MOL      0.646622
     32 O6          3.7460   -0.5100    0.9790 o         1 MOL     -0.519598
     33 C12         3.5470    0.7780    3.9200 c3        1 MOL     -0.401082
     34 C13         2.0820    0.3450    3.7710 c         1 MOL      0.857343
     35 O7          1.7690   -0.8320    3.4790 o         1 MOL     -0.733421
     36 O8          1.1230    1.1690    3.9800 o         1 MOL     -0.733421
     37 H13         2.4040    1.7020    1.5020 hn        1 MOL      0.344048
     38 H14         5.1440    1.5630    2.7410 h1        1 MOL      0.042237
     39 H15         3.6150    1.5760    4.6550 hc        1 MOL      0.083606
     40 H16         4.2110   -0.0370    4.2310 hc        1 MOL      0.083606
     41 N4          5.6960   -0.5990    2.1710 n         1 MOL     -0.676460
     42 C14         6.2500   -1.7530    1.5180 c3        1 MOL      0.422116
     43 C15         7.3410   -1.2830    0.5650 c         1 MOL      0.380957
     44 O9          7.6830   -0.0710    0.4130 o         1 MOL     -0.495384
     45 H17         6.2150   -0.1680    2.9190 hn        1 MOL      0.341270
     46 H18         5.5050   -2.2230    0.8790 h1        1 MOL     -0.026713
     47 H19         6.5650   -2.5380    2.2090 h1        1 MOL     -0.026713
     48 N5          7.8640   -2.1770   -0.3340 n         1 MOL     -0.359407
     49 C16         7.7360   -3.6420   -0.3720 c3        1 MOL     -0.003021
     50 C17         7.0140   -4.0450   -1.6670 c         1 MOL      0.424830
     51 O10         6.9390   -5.1320   -2.2130 o         1 MOL     -0.514430
     52 C18         9.1500   -4.1430   -0.1530 c3        1 MOL     -0.078660
     53 C19         9.6970   -3.8820    1.1690 c         1 MOL      0.655253
     54 N6         10.8470   -4.2590    1.3840 n         1 MOL     -0.726123
     55 O11         9.1400   -3.2340    2.0630 o         1 MOL     -0.601984
     56 H20         8.4280   -1.7270   -1.0340 hn        1 MOL      0.240635
     57 H21         7.1540   -4.0010    0.4850 h1        1 MOL      0.108775
     58 H22         9.7930   -3.8800   -0.9910 hc        1 MOL      0.041811
     59 H23         9.1140   -5.2340   -0.1970 hc        1 MOL      0.041811
     60 H24        11.3850   -4.9580    0.8840 hn        1 MOL      0.348666
     61 H25        11.0590   -3.9350    2.3160 hn        1 MOL      0.348666
     62 N7          6.2770   -3.0610   -2.2020 n         1 MOL     -0.207506
     63 C20         5.5930   -3.1630   -3.5360 c3        1 MOL     -0.330873
     64 C21         4.2260   -3.8120   -3.3800 c         1 MOL      0.652157
     65 O12         3.9080   -4.7230   -4.1030 o         1 MOL     -0.566274
     66 H26         6.3740   -2.1180   -1.8600 hn        1 MOL      0.257761
     67 H27         6.1590   -3.8540   -4.1700 h1        1 MOL      0.148623
     68 H28         5.5610   -2.1600   -3.9450 h1        1 MOL      0.148623
     69 N8          3.4320   -3.4700   -2.3790 n         1 MOL     -0.440586
     70 C22         2.2800   -4.1950   -1.8440 c3        1 MOL     -0.050372
     71 C23         1.0910   -3.2860   -1.6580 c         1 MOL      0.547308
     72 O13         1.2190   -2.0870   -1.4220 o         1 MOL     -0.568427
     73 C24         2.6840   -4.8750   -0.5430 c3        1 MOL      0.382267
     74 C25         3.6900   -5.9740   -0.8830 c3        1 MOL     -0.492081
     75 O14         3.3450   -3.9490    0.3370 oh        1 MOL     -0.635664
     76 H29         3.7040   -2.6380   -1.8660 hn        1 MOL      0.279302
     77 H30         2.0290   -4.9770   -2.5660 h1        1 MOL      0.096383
     78 H31         1.8040   -5.3290   -0.0840 h1        1 MOL      0.003864
     79 H32         2.6520   -3.5010    0.8260 ho        1 MOL      0.432250
     80 H33         4.5880   -5.4900   -1.2620 hc        1 MOL      0.137067
     81 H34         3.8570   -6.4570    0.0790 hc        1 MOL      0.137067
     82 H35         3.3580   -6.7460   -1.5800 hc        1 MOL      0.137067
     83 N9         -0.0820   -3.9140   -1.7530 n         1 MOL     -0.489964
     84 C26        -1.3870   -3.3050   -1.3770 c3        1 MOL      0.033864
     85 C27        -2.2020   -3.9780   -0.2210 c         1 MOL      0.456442
     86 O15        -2.2470   -5.2480   -0.1170 o         1 MOL     -0.549134
     87 C28        -2.2620   -3.2090   -2.6030 c3        1 MOL      0.264596
     88 C29        -1.8240   -2.0720   -3.5590 c3        1 MOL      0.051424
     89 C30        -2.5090   -4.5090   -3.3620 c3        1 MOL     -0.293137
     90 C31        -2.9650   -1.3970   -4.3740 c3        1 MOL     -0.177974
     91 H36        -0.0760   -4.8750   -2.0850 hn        1 MOL      0.262350
     92 H37        -1.1760   -2.3010   -1.0250 h1        1 MOL      0.167985
     93 H38        -3.1810   -2.9070   -2.0990 hc        1 MOL     -0.033015
     94 H39        -1.0610   -2.5360   -4.1870 hc        1 MOL      0.001667
     95 H40        -1.4470   -1.2600   -2.9310 hc        1 MOL      0.001667
     96 H41        -2.7290   -5.3730   -2.7350 hc        1 MOL      0.059771
     97 H42        -3.3000   -4.4600   -4.1120 hc        1 MOL      0.059771
     98 H43        -1.6170   -4.7570   -3.9380 hc        1 MOL      0.059771
     99 H44        -3.7610   -1.0830   -3.7020 hc        1 MOL      0.026253
    100 H45        -2.5210   -0.6570   -5.0380 hc        1 MOL      0.026253
    101 H46        -3.3930   -2.1150   -5.0710 hc        1 MOL      0.026253
    102 N10        -2.9660   -3.1150    0.4900 n         1 MOL     -0.121568
    103 C32        -3.8500   -3.5310    1.5700 c3        1 MOL      0.104764
    104 C33        -5.3120   -2.9280    1.5740 c         1 MOL      0.422887
    105 O16        -6.1440   -3.3020    2.4000 o         1 MOL     -0.534228
    106 C34        -3.1960   -3.5090    2.9680 c3        1 MOL     -0.160719
    107 C35        -2.3870   -2.1960    3.1180 c         1 MOL      0.814313
    108 O17        -2.9400   -1.1750    3.5820 o         1 MOL     -0.756590
    109 O18        -1.1260   -2.2570    2.9460 o         1 MOL     -0.756590
    110 H47        -2.9340   -2.1170    0.2990 hn        1 MOL     -0.209349
    111 H48        -4.0750   -4.5770    1.3430 h1        1 MOL      0.052710
    112 H49        -2.5780   -4.3920    3.1110 hc        1 MOL      0.037011
    113 H50        -3.9450   -3.4430    3.7590 hc        1 MOL      0.037011
    114 N11        -5.6970   -1.9870    0.6570 n         1 MOL     -0.424586
    115 C36        -7.0370   -1.2980    0.6500 c3        1 MOL      0.506971
    116 C37        -6.8130    0.2470    0.3950 c         1 MOL      0.169991
    117 O19        -7.2150    0.7490   -0.6660 o         1 MOL     -0.437403
    118 C38        -7.9480   -2.0730   -0.3730 c3        1 MOL     -0.452242
    119 C39        -9.3030   -1.5420   -0.4710 ca        1 MOL      0.279462
    120 C40       -10.0680   -1.1680    0.6890 ca        1 MOL     -0.229588
    121 C41        -9.8680   -1.4200   -1.6950 ca        1 MOL     -0.229588
    122 C42       -11.2940   -0.6150    0.5830 ca        1 MOL     -0.070810
    123 C43       -11.1870   -0.9540   -1.8280 ca        1 MOL     -0.070810
    124 C44       -11.8800   -0.5930   -0.6790 ca        1 MOL     -0.182831
    125 H51        -5.0800   -1.8590   -0.1360 hn        1 MOL      0.250160
    126 H52        -7.4240   -1.4780    1.6600 h1        1 MOL     -0.012069
    127 H53        -8.0440   -3.1050   -0.0410 hc        1 MOL      0.124302
    128 H54        -7.3870   -1.9970   -1.2970 hc        1 MOL      0.124302
    129 H55        -9.5840   -1.3170    1.6430 ha        1 MOL      0.123368
    130 H56        -9.3310   -1.6910   -2.5910 ha        1 MOL      0.123368
    131 H57       -11.7990   -0.2760    1.4770 ha        1 MOL      0.100243
    132 H58       -11.5990   -0.8230   -2.8140 ha        1 MOL      0.100243
    133 H59       -12.8350   -0.1630   -0.9370 ha        1 MOL      0.096930
    134 N12        -6.1870    1.0260    1.2770 n         1 MOL     -0.110399
    135 C45        -6.2960    2.5180    1.1460 c3        1 MOL      0.046027
    136 C46        -5.6130    3.1860   -0.1060 c         1 MOL      0.283763
    137 O20        -5.8990    4.3440   -0.3110 o         1 MOL     -0.508729
    138 C47        -5.6630    3.1770    2.3370 c3        1 MOL     -0.010572
    139 C48        -5.6630    2.0030    3.3430 c3        1 MOL     -0.114826
    140 C49        -5.4240    0.7540    2.4980 c3        1 MOL     -0.119798
    141 H60        -7.3440    2.7890    0.9610 h1        1 MOL      0.088575
    142 H61        -4.6600    3.5520    2.1100 hc        1 MOL      0.025850
    143 H62        -6.3180    3.9970    2.6230 hc        1 MOL      0.025850
    144 H63        -5.0090    2.2170    4.1900 hc        1 MOL      0.040716
    145 H64        -6.6320    1.9140    3.8430 hc        1 MOL      0.040716
    146 H65        -4.3580    0.7140    2.2690 h1        1 MOL      0.117764
    147 H66        -5.7910   -0.1850    2.9160 h1        1 MOL      0.117764
    148 N13        -4.7930    2.4570   -0.8210 n         1 MOL      0.000208
    149 C50        -4.1880    2.8100   -2.1550 c3        1 MOL     -0.232478
    150 C51        -5.2340    2.9260   -3.2400 c         1 MOL      0.544879
    151 O21        -5.1810    3.8270   -4.0800 o         1 MOL     -0.554662
    152 C52        -3.1100    1.7800   -2.5480 c3        1 MOL      0.083093
    153 C53        -2.1960    1.3160   -1.3260 c3        1 MOL     -0.272045
    154 C54        -2.7980    0.0880   -0.5010 c         1 MOL      0.153225
    155 O22        -2.4110   -0.1490    0.6900 o         1 MOL     -0.360992
    156 O23        -3.7750   -0.5470   -1.0070 o         1 MOL     -0.360992
    157 H67        -4.8170    1.4780   -0.5930 hn        1 MOL      0.136756
    158 H68        -3.6740    3.7640   -2.0930 h1        1 MOL      0.116035
    159 H69        -2.4710    2.2830   -3.2880 hc        1 MOL      0.030119
    160 H70        -3.4870    0.8940   -3.0620 hc        1 MOL      0.030119
    161 H71        -1.9760    2.1830   -0.7030 hc        1 MOL      0.102269
    162 H72        -1.2400    0.9650   -1.7070 hc        1 MOL      0.102269
    163 N14        -6.3100    2.0680   -3.2800 n         1 MOL     -0.246887
    164 C55        -7.4760    2.2060   -4.1970 c3        1 MOL     -0.208853
    165 H73        -8.3690    2.4380   -3.6170 h1        1 MOL      0.093997
    166 H74        -7.2870    3.0100   -4.9080 h1        1 MOL      0.093997
    167 H75        -7.6270    1.2720   -4.7380 h1        1 MOL      0.093997
    168 H76        -6.4380    1.3890   -2.5400 hn        1 MOL      0.210396
    169 Ca1        -0.8760    0.2810    2.6800 Ca        1 MOL      1.671490
    170 O24        -0.0880    2.4250    1.3260 oh        1 MOL     -0.873057
    171 O25         0.8840   -0.0490    0.5130 oh        1 MOL     -0.873057
    172 H77         0.7730    2.8410    1.3540 ho        1 MOL      0.423852
    173 H78         0.6930   -0.5550   -0.2790 ho        1 MOL      0.423852
    174 H79        -0.6440    3.0450    0.8470 ho        1 MOL      0.423852
    175 H80         1.8420   -0.0620    0.5800 ho        1 MOL      0.423852
    176 O26        -2.4290    2.4990    3.2090 oh        1 MOL     -0.873057
    177 H81        -2.7570    2.9590    3.9880 ho        1 MOL      0.423852
    178 H82        -2.4300    3.1600    2.5140 ho        1 MOL      0.423852
    179 O27        -1.4360    0.6860    5.5240 oh        1 MOL     -0.873057
    180 H83        -1.3680    0.4740    6.4620 ho        1 MOL      0.423852
    181 H84        -2.3350    0.9890    5.4020 ho        1 MOL      0.423852
@<TRIPOS>BOND
     1    1    2 1   
     2    1    4 1   
     3    1    5 1   
     4    1    6 1   
     5    2    3 2   
     6    2    7 1   
     7    7    8 1   
     8    7   15 1   
     9    8    9 1   
    10    8   11 1   
    11    8   16 1   
    12    9   10 2   
    13    9   19 1   
    14   11   12 1   
    15   11   17 1   
    16   11   18 1   
    17   12   13 1   
    18   12   14 1   
    19   19   20 1   
    20   19   24 1   
    21   20   21 1   
    22   20   23 1   
    23   20   25 1   
    24   21   22 2   
    25   21   29 1   
    26   23   26 1   
    27   23   27 1   
    28   23   28 1   
    29   29   30 1   
    30   29   37 1   
    31   30   31 1   
    32   30   33 1   
    33   30   38 1   
    34   31   32 2   
    35   31   41 1   
    36   33   34 1   
    37   33   39 1   
    38   33   40 1   
    39   34   35 1   
    40   34   36 1   
    41   41   42 1   
    42   41   45 1   
    43   42   43 1   
    44   42   46 1   
    45   42   47 1   
    46   43   44 2   
    47   43   48 1   
    48   48   49 1   
    49   48   56 1   
    50   49   50 1   
    51   49   52 1   
    52   49   57 1   
    53   50   51 2   
    54   50   62 1   
    55   52   53 1   
    56   52   58 1   
    57   52   59 1   
    58   53   54 1   
    59   53   55 2   
    60   54   60 1   
    61   54   61 1   
    62   62   63 1   
    63   62   66 1   
    64   63   64 1   
    65   63   67 1   
    66   63   68 1   
    67   64   65 2   
    68   64   69 1   
    69   69   70 1   
    70   69   76 1   
    71   70   71 1   
    72   70   73 1   
    73   70   77 1   
    74   71   72 2   
    75   71   83 1   
    76   73   74 1   
    77   73   75 1   
    78   73   78 1   
    79   74   80 1   
    80   74   81 1   
    81   74   82 1   
    82   75   79 1   
    83   83   84 1   
    84   83   91 1   
    85   84   85 1   
    86   84   87 1   
    87   84   92 1   
    88   85   86 2   
    89   85  102 1   
    90   87   88 1   
    91   87   89 1   
    92   87   93 1   
    93   88   90 1   
    94   88   94 1   
    95   88   95 1   
    96   89   96 1   
    97   89   97 1   
    98   89   98 1   
    99   90   99 1   
   100   90  100 1   
   101   90  101 1   
   102  102  103 1   
   103  102  110 1   
   104  103  104 1   
   105  103  106 1   
   106  103  111 1   
   107  104  105 2   
   108  104  114 1   
   109  106  107 1   
   110  106  112 1   
   111  106  113 1   
   112  107  108 1   
   113  107  109 1   
   114  114  115 1   
   115  114  125 1   
   116  115  116 1   
   117  115  118 1   
   118  115  126 1   
   119  116  117 2   
   120  116  134 1   
   121  118  119 1   
   122  118  127 1   
   123  118  128 1   
   124  119  120 ar  
   125  119  121 ar  
   126  120  122 ar  
   127  120  129 1   
   128  121  123 ar  
   129  121  130 1   
   130  122  124 ar  
   131  122  131 1   
   132  123  124 ar  
   133  123  132 1   
   134  124  133 1   
   135  134  135 1   
   136  134  140 1   
   137  135  136 1   
   138  135  138 1   
   139  135  141 1   
   140  136  137 2   
   141  136  148 1   
   142  138  139 1   
   143  138  142 1   
   144  138  143 1   
   145  139  140 1   
   146  139  144 1   
   147  139  145 1   
   148  140  146 1   
   149  140  147 1   
   150  148  149 1   
   151  148  157 1   
   152  149  150 1   
   153  149  152 1   
   154  149  158 1   
   155  150  151 2   
   156  150  163 1   
   157  152  153 1   
   158  152  159 1   
   159  152  160 1   
   160  153  154 1   
   161  153  161 1   
   162  153  162 1   
   163  154  155 1   
   164  154  156 1   
   165  163  164 1   
   166  163  168 1   
   167  164  165 1   
   168  164  166 1   
   169  164  167 1   
   170  170  172 1   
   171  170  174 1   
   172  171  173 1   
   173  171  175 1   
   174  176  177 1   
   175  176  178 1   
   176  179  180 1   
   177  179  181 1   
@<TRIPOS>SUBSTRUCTURE
     1 MOL         1 TEMP              0 ****  ****    0 ROOT
