@<TRIPOS>MOLECULE
MOL
  189   185     1     0     0
SMALL
resp


@<TRIPOS>ATOM
      1 C1         -7.4690    0.2000   -3.9880 c3        1 MOL     -0.494963
      2 C2         -7.2350    0.3530   -2.4830 c         1 MOL      0.639295
      3 O1         -6.2780    1.0370   -2.0270 o         1 MOL     -0.565310
      4 H1         -6.6750    0.7120   -4.5320 hc        1 MOL      0.138706
      5 H2         -7.4650   -0.8580   -4.2520 hc        1 MOL      0.138706
      6 H3         -8.4310    0.6370   -4.2530 hc        1 MOL      0.138706
      7 N1         -8.0900   -0.3290   -1.6780 n         1 MOL     -0.434495
      8 C3         -8.0180   -0.2360   -0.1930 c3        1 MOL      0.096680
      9 C4         -7.3910   -1.4160    0.5590 c         1 MOL      0.130296
     10 O2         -7.3540   -1.4930    1.8170 o         1 MOL     -0.404345
     11 C5         -9.4210    0.1880    0.3390 c3        1 MOL     -0.149113
     12 C6        -10.5160   -0.7290   -0.1820 c         1 MOL      0.706333
     13 O3        -11.3540   -0.4260   -1.0120 o         1 MOL     -0.689727
     14 O4        -10.4140   -1.9570    0.2050 o         1 MOL     -0.689727
     15 H4         -8.8750   -0.7740   -2.1190 hn        1 MOL      0.280793
     16 H5         -7.3760    0.6280    0.0060 h1        1 MOL      0.102969
     17 H6         -9.5570    1.1600   -0.1320 hc        1 MOL      0.054771
     18 H7         -9.4890    0.2650    1.4130 hc        1 MOL      0.054771
     19 N2         -6.7710   -2.3760   -0.1550 n         1 MOL     -0.180468
     20 C7         -6.0790   -3.5440    0.4870 c3        1 MOL      0.100643
     21 C8         -4.8390   -3.1700    1.3390 c         1 MOL      0.345519
     22 O5         -4.5690   -3.8560    2.3160 o         1 MOL     -0.524905
     23 C9         -5.6940   -4.5800   -0.6680 c3        1 MOL     -0.055901
     24 C10        -6.7070   -5.7180   -0.8940 c3        1 MOL     -0.016139
     25 C11        -7.9760   -5.2210   -1.5530 c3        1 MOL     -0.181449
     26 C12        -9.2310   -5.3460   -0.6370 c3        1 MOL      0.099264
     27 N3        -10.4270   -4.5740   -1.1530 n4        1 MOL     -0.459733
     28 H8         -6.8890   -2.4550   -1.1550 hn        1 MOL      0.167253
     29 H9         -6.7320   -4.0260    1.2080 h1        1 MOL      0.086610
     30 H10        -4.7290   -5.0140   -0.4170 hc        1 MOL      0.056435
     31 H11        -5.5360   -4.0630   -1.6020 hc        1 MOL      0.056435
     32 H12        -6.9800   -6.0790    0.0930 hc        1 MOL      0.036747
     33 H13        -6.2030   -6.4880   -1.4840 hc        1 MOL      0.036747
     34 H14        -8.0770   -5.8860   -2.4030 hc        1 MOL      0.056803
     35 H15        -7.8740   -4.1830   -1.8820 hc        1 MOL      0.056803
     36 H16        -8.9390   -5.0220    0.3630 hx        1 MOL      0.080514
     37 H17        -9.4760   -6.4030   -0.4890 hx        1 MOL      0.080514
     38 H18       -10.4180   -3.5990   -0.8750 hn        1 MOL      0.330480
     39 H19       -10.4600   -4.7190   -2.1510 hn        1 MOL      0.330480
     40 H20       -11.2780   -4.9440   -0.7630 hn        1 MOL      0.330480
     41 N4         -3.9310   -2.1950    1.0940 n         1 MOL     -0.098562
     42 C13        -3.8100   -1.2600    0.0110 c3        1 MOL     -0.085273
     43 C14        -3.5410    0.1450    0.6060 c         1 MOL      0.368651
     44 O6         -2.8250    0.2660    1.5700 o         1 MOL     -0.473973
     45 C15        -2.7600   -1.6660   -1.0450 c3        1 MOL     -0.254809
     46 C16        -1.3630   -2.1140   -0.5330 c         1 MOL      0.683401
     47 O7         -0.9100   -1.6150    0.5110 o         1 MOL     -0.659987
     48 O8         -0.7500   -3.0510   -1.1130 o         1 MOL     -0.659987
     49 H21        -3.2960   -1.9710    1.8370 hn        1 MOL      0.239959
     50 H22        -4.6970   -1.3660   -0.6110 h1        1 MOL      0.060264
     51 H23        -2.6150   -0.8900   -1.7920 hc        1 MOL      0.048050
     52 H24        -3.2400   -2.4950   -1.5790 hc        1 MOL      0.048050
     53 N5         -4.0070    1.2030   -0.0190 n         1 MOL      0.014576
     54 C17        -4.0570    2.5440    0.4750 c3        1 MOL     -0.278300
     55 C18        -2.7460    3.1280    0.9190 c         1 MOL      0.673621
     56 O9         -1.7440    2.5810    0.4710 o         1 MOL     -0.673343
     57 H25        -4.4620    0.9450   -0.8840 hn        1 MOL      0.144390
     58 H26        -4.7770    2.7150    1.2790 h1        1 MOL      0.113725
     59 H27        -4.3420    3.1670   -0.3710 h1        1 MOL      0.113725
     60 N6         -2.7410    4.1530    1.7960 n         1 MOL     -0.549671
     61 C19        -1.6450    4.7140    2.5290 c3        1 MOL      0.546009
     62 C20        -1.5840    6.2450    2.7610 c         1 MOL      0.330205
     63 O10        -2.5960    6.8250    3.1330 o         1 MOL     -0.496864
     64 C21        -1.5320    4.0500    3.9200 c3        1 MOL     -0.294458
     65 C22        -1.8370    2.5990    4.0730 c         1 MOL      0.709298
     66 O11        -1.2880    1.7870    3.3530 o         1 MOL     -0.675405
     67 O12        -2.6070    2.2300    4.9780 o         1 MOL     -0.675405
     68 H28        -3.6530    4.5530    1.9600 hn        1 MOL      0.273123
     69 H29        -0.8160    4.3480    1.9210 h1        1 MOL     -0.125411
     70 H30        -2.2490    4.5710    4.5650 hc        1 MOL      0.057457
     71 H31        -0.5050    4.2240    4.2270 hc        1 MOL      0.057457
     72 N7         -0.4170    6.9650    2.7910 n         1 MOL     -0.432144
     73 C23         0.8880    6.2740    2.5970 c3        1 MOL     -0.124926
     74 C24         1.2200    6.0740    1.0910 c         1 MOL      0.662752
     75 O13         0.3470    6.2360    0.2320 o         1 MOL     -0.512920
     76 H32        -0.4300    7.9000    3.1640 hn        1 MOL      0.340055
     77 H33         0.9410    5.2870    3.0530 h1        1 MOL      0.086271
     78 H34         1.6680    6.9170    3.0070 h1        1 MOL      0.086271
     79 N8          2.4550    5.7100    0.7710 n         1 MOL     -0.656406
     80 C25         2.7620    5.0550   -0.5500 c3        1 MOL      0.114508
     81 C26         1.8300    3.8160   -0.8530 c         1 MOL      0.397851
     82 O14         1.3750    3.1490    0.1020 o         1 MOL     -0.388888
     83 C27         4.2740    4.7480   -0.6550 c3        1 MOL      0.198280
     84 C28         4.7750    4.4040   -2.0270 c3        1 MOL     -0.262066
     85 O15         4.5790    3.6420    0.1900 oh        1 MOL     -0.566342
     86 H35         3.0890    5.5170    1.5310 hn        1 MOL      0.346354
     87 H36         2.4790    5.7440   -1.3580 h1        1 MOL      0.059816
     88 H37         4.8380    5.6400   -0.3660 h1        1 MOL      0.044693
     89 H38         5.4910    3.4280   -0.0390 ho        1 MOL      0.388792
     90 H39         4.4310    3.3910   -2.2360 hc        1 MOL      0.069071
     91 H40         4.5150    5.1380   -2.7750 hc        1 MOL      0.069071
     92 H41         5.8630    4.3430   -2.0280 hc        1 MOL      0.069071
     93 N9          1.6620    3.5270   -2.1490 n         1 MOL     -0.323614
     94 C29         0.7440    2.5920   -2.8480 c3        1 MOL     -0.252806
     95 C30         0.7860    1.1000   -2.3190 c         1 MOL      0.623714
     96 O16         0.4430    0.7260   -1.1620 o         1 MOL     -0.508604
     97 C31        -0.6810    3.2050   -2.9000 c3        1 MOL     -0.017657
     98 C32        -0.7460    4.2670   -3.9850 c3        1 MOL     -0.011969
     99 C33        -1.7260    2.1160   -3.2360 c3        1 MOL     -0.363146
    100 C34        -1.9700    5.0440   -3.9610 c3        1 MOL     -0.017964
    101 H42         2.2500    4.0900   -2.7360 hn        1 MOL      0.284707
    102 H43         1.1100    2.6550   -3.8730 h1        1 MOL      0.075362
    103 H44        -0.9250    3.6550   -1.9330 hc        1 MOL      0.156951
    104 H45        -0.7730    3.8080   -4.9750 hc        1 MOL      0.012832
    105 H46         0.1380    4.8980   -3.8640 hc        1 MOL      0.012832
    106 H47        -2.7310    2.4970   -3.4180 hc        1 MOL      0.115940
    107 H48        -1.4880    1.4430   -4.0600 hc        1 MOL      0.115940
    108 H49        -1.7660    1.4880   -2.3460 hc        1 MOL      0.115940
    109 H50        -2.8380    4.5160   -4.3580 hc        1 MOL      0.012385
    110 H51        -2.1580    5.4610   -2.9790 hc        1 MOL      0.012385
    111 H52        -1.7610    5.9140   -4.5910 hc        1 MOL      0.012385
    112 N10         1.5460    0.2760   -3.0650 n         1 MOL     -0.371648
    113 C35         2.0360   -1.0530   -2.6250 c3        1 MOL     -0.356056
    114 C36         3.5500   -1.1580   -2.3990 c         1 MOL      0.481041
    115 O17         3.9460   -2.1400   -1.7360 o         1 MOL     -0.521223
    116 C37         1.6470   -2.1410   -3.6230 c3        1 MOL      0.445448
    117 C38         1.9690   -1.8140   -5.0830 c3        1 MOL     -0.263101
    118 O18         0.2920   -2.2920   -3.4580 oh        1 MOL     -0.640101
    119 H53         1.7870    0.5740   -4.0020 hn        1 MOL      0.304800
    120 H54         1.5900   -1.3790   -1.6790 h1        1 MOL      0.292402
    121 H55         2.0860   -3.1170   -3.4150 h1        1 MOL      0.010281
    122 H56         0.0350   -2.4290   -2.5400 ho        1 MOL      0.358607
    123 H57         2.3090   -2.7180   -5.5880 hc        1 MOL      0.059269
    124 H58         1.1630   -1.4110   -5.7080 hc        1 MOL      0.059269
    125 H59         2.7400   -1.0400   -5.0540 hc        1 MOL      0.059269
    126 N11         4.3880   -0.2170   -2.9120 n         1 MOL     -0.180634
    127 C39         5.8050   -0.3200   -2.8320 c3        1 MOL     -0.235938
    128 C40         6.2960   -0.6730   -1.3660 c         1 MOL      0.402828
    129 O19         6.1990    0.1420   -0.4210 o         1 MOL     -0.450091
    130 C41         6.5210    0.9290   -3.4050 c3        1 MOL      0.413904
    131 C42         8.0340    0.8850   -3.2950 c3        1 MOL     -0.584555
    132 O20         6.2560    1.0930   -4.7920 oh        1 MOL     -0.616789
    133 H60         3.9820    0.5240   -3.4570 hn        1 MOL      0.227715
    134 H61         6.1060   -1.1230   -3.5000 h1        1 MOL      0.128837
    135 H62         6.1270    1.8210   -2.9160 h1        1 MOL     -0.020479
    136 H63         6.3320    2.0280   -4.9930 ho        1 MOL      0.390151
    137 H64         8.6120    1.6430   -3.8230 hc        1 MOL      0.163387
    138 H65         8.3070    0.9500   -2.2370 hc        1 MOL      0.163387
    139 H66         8.2990   -0.1140   -3.6500 hc        1 MOL      0.163387
    140 N12         6.6840   -1.9300   -1.1660 n         1 MOL     -0.232025
    141 C43         7.0680   -2.5120    0.2040 c3        1 MOL      0.192074
    142 C44         6.0900   -2.1370    1.2590 c         1 MOL      0.489710
    143 O21         6.3860   -1.4710    2.2130 o         1 MOL     -0.508542
    144 C45         8.5760   -2.3380    0.5510 c3        1 MOL     -0.421786
    145 C46         9.5530   -3.0530   -0.3480 c3        1 MOL      0.234533
    146 C47        11.0030   -2.8140    0.0550 c3        1 MOL      0.069914
    147 C48        11.8850   -3.6860   -0.7700 c3        1 MOL     -0.029100
    148 N13        11.8460   -5.1160   -0.3890 n4        1 MOL     -0.115269
    149 H67         6.6670   -2.6140   -1.9030 hn        1 MOL      0.197411
    150 H68         7.0560   -3.6050    0.1320 h1        1 MOL      0.028438
    151 H69         8.6550   -2.7460    1.5540 hc        1 MOL      0.124145
    152 H70         8.7890   -1.2740    0.5350 hc        1 MOL      0.124145
    153 H71         9.3300   -2.6330   -1.3340 hc        1 MOL     -0.066731
    154 H72         9.2960   -4.1130   -0.2870 hc        1 MOL     -0.066731
    155 H73        11.0740   -3.0720    1.1160 hc        1 MOL      0.021319
    156 H74        11.2250   -1.7560   -0.0410 hc        1 MOL      0.021319
    157 H75        12.8970   -3.3590   -0.5390 hx        1 MOL      0.056178
    158 H76        11.5760   -3.5480   -1.7990 hx        1 MOL      0.056178
    159 H77        12.5920   -5.6120   -0.8650 hn        1 MOL      0.188370
    160 H78        11.9240   -5.2780    0.6050 hn        1 MOL      0.188370
    161 H79        10.9530   -5.4970   -0.6520 hn        1 MOL      0.188370
    162 N14         4.8020   -2.4870    1.0240 n         1 MOL     -0.467303
    163 C49         3.6900   -2.1220    1.9320 c3        1 MOL      0.451409
    164 C50         2.3600   -1.9730    1.2490 c         1 MOL      0.388388
    165 O22         1.9750   -0.8420    1.0650 o         1 MOL     -0.659453
    166 C51         3.5760   -3.0340    3.1630 c3        1 MOL     -0.329532
    167 C52         4.4900   -2.5920    4.3540 c3        1 MOL     -0.263236
    168 C53         4.2190   -3.4240    5.6700 c         1 MOL      0.699875
    169 O23         4.3600   -4.6740    5.6780 o         1 MOL     -0.613941
    170 O24         3.9580   -2.9030    6.7790 o         1 MOL     -0.613941
    171 H80         4.6350   -3.0580    0.2060 hn        1 MOL      0.224901
    172 H81         3.8870   -1.1520    2.3890 h1        1 MOL      0.017029
    173 H82         3.8540   -4.0530    2.9240 hc        1 MOL      0.107570
    174 H83         2.5530   -3.0240    3.5400 hc        1 MOL      0.107570
    175 H84         4.3000   -1.5650    4.6610 hc        1 MOL      0.074706
    176 H85         5.5570   -2.6070    4.1030 hc        1 MOL      0.074706
    177 N15         1.6600   -2.9780    0.6890 n         1 MOL     -0.363047
    178 C54         2.0000   -4.4090    0.5740 c3        1 MOL     -0.113343
    179 H86         1.1180   -5.0110    0.7920 h1        1 MOL      0.070680
    180 H87         2.3430   -4.6220   -0.4390 h1        1 MOL      0.070680
    181 H88         2.7910   -4.6530    1.2840 h1        1 MOL      0.070680
    182 H89         0.8110   -2.6910    0.2120 hn        1 MOL      0.369147
    183 Ca1        -0.0390    0.7120    1.3850 Ca        1 MOL      1.716470
    184 O25        -0.2100   -0.8900    3.5400 oh        1 MOL     -0.886357
    185 H90        -0.8650   -0.5060    4.1140 ho        1 MOL      0.429068
    186 H91         0.4150   -1.3170    4.1350 ho        1 MOL      0.429068
    187 O26         2.0180    1.5800    2.7560 oh        1 MOL     -0.886357
    188 H92         2.3300    1.5180    3.6510 ho        1 MOL      0.429068
    189 H93         2.8020    1.5280    2.2090 ho        1 MOL      0.429068
@<TRIPOS>BOND
     1    1    2 1   
     2    1    4 1   
     3    1    5 1   
     4    1    6 1   
     5    2    3 2   
     6    2    7 1   
     7    7    8 1   
     8    7   15 1   
     9    8    9 1   
    10    8   11 1   
    11    8   16 1   
    12    9   10 2   
    13    9   19 1   
    14   11   12 1   
    15   11   17 1   
    16   11   18 1   
    17   12   13 1   
    18   12   14 1   
    19   19   20 1   
    20   19   28 1   
    21   20   21 1   
    22   20   23 1   
    23   20   29 1   
    24   21   22 2   
    25   21   41 1   
    26   23   24 1   
    27   23   30 1   
    28   23   31 1   
    29   24   25 1   
    30   24   32 1   
    31   24   33 1   
    32   25   26 1   
    33   25   34 1   
    34   25   35 1   
    35   26   27 1   
    36   26   36 1   
    37   26   37 1   
    38   27   38 1   
    39   27   39 1   
    40   27   40 1   
    41   41   42 1   
    42   41   49 1   
    43   42   43 1   
    44   42   45 1   
    45   42   50 1   
    46   43   44 2   
    47   43   53 1   
    48   45   46 1   
    49   45   51 1   
    50   45   52 1   
    51   46   47 1   
    52   46   48 1   
    53   53   54 1   
    54   53   57 1   
    55   54   55 1   
    56   54   58 1   
    57   54   59 1   
    58   55   56 2   
    59   55   60 1   
    60   60   61 1   
    61   60   68 1   
    62   61   62 1   
    63   61   64 1   
    64   61   69 1   
    65   62   63 2   
    66   62   72 1   
    67   64   65 1   
    68   64   70 1   
    69   64   71 1   
    70   65   66 1   
    71   65   67 1   
    72   72   73 1   
    73   72   76 1   
    74   73   74 1   
    75   73   77 1   
    76   73   78 1   
    77   74   75 2   
    78   74   79 1   
    79   79   80 1   
    80   79   86 1   
    81   80   81 1   
    82   80   83 1   
    83   80   87 1   
    84   81   82 2   
    85   81   93 1   
    86   83   84 1   
    87   83   85 1   
    88   83   88 1   
    89   84   90 1   
    90   84   91 1   
    91   84   92 1   
    92   85   89 1   
    93   93   94 1   
    94   93  101 1   
    95   94   95 1   
    96   94   97 1   
    97   94  102 1   
    98   95   96 2   
    99   95  112 1   
   100   97   98 1   
   101   97   99 1   
   102   97  103 1   
   103   98  100 1   
   104   98  104 1   
   105   98  105 1   
   106   99  106 1   
   107   99  107 1   
   108   99  108 1   
   109  100  109 1   
   110  100  110 1   
   111  100  111 1   
   112  112  113 1   
   113  112  119 1   
   114  113  114 1   
   115  113  116 1   
   116  113  120 1   
   117  114  115 2   
   118  114  126 1   
   119  116  117 1   
   120  116  118 1   
   121  116  121 1   
   122  117  123 1   
   123  117  124 1   
   124  117  125 1   
   125  118  122 1   
   126  126  127 1   
   127  126  133 1   
   128  127  128 1   
   129  127  130 1   
   130  127  134 1   
   131  128  129 2   
   132  128  140 1   
   133  130  131 1   
   134  130  132 1   
   135  130  135 1   
   136  131  137 1   
   137  131  138 1   
   138  131  139 1   
   139  132  136 1   
   140  140  141 1   
   141  140  149 1   
   142  141  142 1   
   143  141  144 1   
   144  141  150 1   
   145  142  143 2   
   146  142  162 1   
   147  144  145 1   
   148  144  151 1   
   149  144  152 1   
   150  145  146 1   
   151  145  153 1   
   152  145  154 1   
   153  146  147 1   
   154  146  155 1   
   155  146  156 1   
   156  147  148 1   
   157  147  157 1   
   158  147  158 1   
   159  148  159 1   
   160  148  160 1   
   161  148  161 1   
   162  162  163 1   
   163  162  171 1   
   164  163  164 1   
   165  163  166 1   
   166  163  172 1   
   167  164  165 2   
   168  164  177 1   
   169  166  167 1   
   170  166  173 1   
   171  166  174 1   
   172  167  168 1   
   173  167  175 1   
   174  167  176 1   
   175  168  169 1   
   176  168  170 1   
   177  177  178 1   
   178  177  182 1   
   179  178  179 1   
   180  178  180 1   
   181  178  181 1   
   182  184  185 1   
   183  184  186 1   
   184  187  188 1   
   185  187  189 1   
@<TRIPOS>SUBSTRUCTURE
     1 MOL         1 TEMP              0 ****  ****    0 ROOT
