@<TRIPOS>MOLECULE
MOL
  178   175     1     0     0
SMALL
resp


@<TRIPOS>ATOM
      1 C1         -6.3080    7.9630    1.2450 c3        1 MOL     -0.352919
      2 C2         -7.1550    6.9900    0.4500 c         1 MOL      0.713027
      3 O1         -7.3290    7.2160   -0.8000 o         1 MOL     -0.600129
      4 H1         -5.7530    8.6040    0.5610 hc        1 MOL      0.082636
      5 H2         -6.9530    8.5760    1.8750 hc        1 MOL      0.082636
      6 H3         -5.6080    7.4080    1.8720 hc        1 MOL      0.082636
      7 N1         -7.8460    6.0720    1.0900 n         1 MOL     -0.688693
      8 C3         -8.9880    5.3050    0.4940 c3        1 MOL      0.495049
      9 C4         -8.4360    4.1900   -0.4110 c         1 MOL      0.459170
     10 O2         -9.2490    3.4910   -1.0960 o         1 MOL     -0.524140
     11 C5        -10.0580    4.8780    1.5360 c3        1 MOL     -0.350898
     12 C6        -11.3700    4.5350    0.8930 c         1 MOL      0.730850
     13 O3        -11.6990    5.0200   -0.2460 o         1 MOL     -0.725867
     14 O4        -12.1880    3.8110    1.5610 o         1 MOL     -0.725867
     15 H4         -7.4670    5.8570    1.9970 hn        1 MOL      0.307792
     16 H5         -9.5300    5.9340   -0.2180 h1        1 MOL      0.008677
     17 H6        -10.2820    5.6370    2.2840 hc        1 MOL      0.042300
     18 H7         -9.6700    4.0100    2.0750 hc        1 MOL      0.042300
     19 N2         -7.1760    3.8820   -0.4010 n         1 MOL     -0.566253
     20 C7         -6.4840    2.9290   -1.1900 c3        1 MOL      0.302786
     21 C8         -5.2760    2.3300   -0.4250 c         1 MOL      0.517459
     22 O5         -4.5710    3.0820    0.2190 o         1 MOL     -0.536834
     23 C9         -6.1530    3.5030   -2.5480 c3        1 MOL     -0.226907
     24 H8         -6.5350    4.3530    0.2240 hn        1 MOL      0.248239
     25 H9         -7.1380    2.1060   -1.4890 h1        1 MOL      0.006092
     26 H10        -5.1540    3.9300   -2.5750 hc        1 MOL      0.069385
     27 H11        -6.1000    2.7380   -3.3270 hc        1 MOL      0.069385
     28 H12        -6.8680    4.2550   -2.8980 hc        1 MOL      0.069385
     29 N3         -4.9840    1.0190   -0.4160 n         1 MOL     -0.327739
     30 C10        -5.6540   -0.0370   -1.1140 c3        1 MOL     -0.163916
     31 C11        -5.7840   -1.2850   -0.2440 c         1 MOL      0.558028
     32 O6         -4.9990   -1.5040    0.6670 o         1 MOL     -0.502872
     33 C12        -4.9090   -0.3770   -2.4650 c3        1 MOL     -0.198303
     34 C13        -3.3680   -0.3190   -2.4130 c         1 MOL      0.655950
     35 O7         -2.8650    0.8020   -2.5940 o         1 MOL     -0.669930
     36 O8         -2.6680   -1.2600   -2.0380 o         1 MOL     -0.669930
     37 H13        -4.2320    0.7670    0.2000 hn        1 MOL      0.222802
     38 H14        -6.6840    0.2370   -1.3610 h1        1 MOL      0.101826
     39 H15        -5.2980    0.3110   -3.2240 hc        1 MOL      0.057502
     40 H16        -5.1660   -1.3650   -2.8370 hc        1 MOL      0.057502
     41 N4         -6.7980   -2.0850   -0.6120 n         1 MOL     -0.460508
     42 C14        -7.1020   -3.4440   -0.0640 c3        1 MOL      0.150434
     43 C15        -6.8360   -4.5190   -1.0950 c         1 MOL      0.427606
     44 O9         -7.7140   -5.0670   -1.7580 o         1 MOL     -0.542427
     45 H17        -7.3840   -1.8500   -1.4080 hn        1 MOL      0.326384
     46 H18        -8.1660   -3.4270    0.1480 h1        1 MOL      0.034797
     47 H19        -6.5990   -3.6330    0.8920 h1        1 MOL      0.034797
     48 N5         -5.5970   -4.9030   -1.4500 n         1 MOL     -0.339021
     49 C16        -4.2830   -4.3880   -0.9710 c3        1 MOL     -0.034320
     50 C17        -3.9360   -5.0710    0.3820 c         1 MOL      0.461405
     51 O10        -3.7510   -6.3150    0.4240 o         1 MOL     -0.531229
     52 C18        -3.2130   -4.6220   -2.0910 c3        1 MOL     -0.117779
     53 C19        -1.8250   -4.1430   -1.6960 c         1 MOL      0.464858
     54 N6         -0.8700   -4.2770   -2.5650 n         1 MOL     -0.602218
     55 O11        -1.5440   -3.5940   -0.6190 o         1 MOL     -0.321904
     56 H20        -5.4400   -5.5870   -2.1740 hn        1 MOL      0.284806
     57 H21        -4.3330   -3.3300   -0.6930 h1        1 MOL      0.075679
     58 H22        -3.5990   -4.1100   -2.9670 hc        1 MOL      0.059373
     59 H23        -3.1170   -5.6900   -2.3220 hc        1 MOL      0.059373
     60 H24        -1.0510   -4.6040   -3.5090 hn        1 MOL      0.299346
     61 H25         0.0860   -4.1140   -2.2810 hn        1 MOL      0.299346
     62 N7         -3.7860   -4.3780    1.5430 n         1 MOL     -0.265394
     63 C20        -3.3790   -4.8480    2.8630 c3        1 MOL     -0.136768
     64 C21        -1.9430   -5.3030    3.0460 c         1 MOL      0.458121
     65 O12        -1.5680   -6.1140    3.9290 o         1 MOL     -0.570144
     66 H26        -3.8510   -3.3660    1.5320 hn        1 MOL      0.250979
     67 H27        -3.9740   -5.7320    3.1130 h1        1 MOL      0.090602
     68 H28        -3.7140   -4.1160    3.5950 h1        1 MOL      0.090602
     69 N8         -1.1320   -4.8630    2.0910 n         1 MOL     -0.073995
     70 C22         0.4040   -5.1180    1.9480 c3        1 MOL     -0.134219
     71 C23         1.1660   -3.8290    1.7550 c         1 MOL      0.316792
     72 O13         0.5710   -2.8300    1.4140 o         1 MOL     -0.442151
     73 C24         0.8320   -6.2340    0.9650 c3        1 MOL      0.398024
     74 C25         0.1350   -7.5810    1.2900 c3        1 MOL     -0.405366
     75 O14         0.5600   -5.9600   -0.3950 oh        1 MOL     -0.576229
     76 H29        -1.5530   -4.1860    1.4740 hn        1 MOL      0.062657
     77 H30         0.6840   -5.6010    2.8790 h1        1 MOL      0.060802
     78 H31         1.9160   -6.3680    1.0000 h1        1 MOL     -0.012199
     79 H32         1.0370   -5.1260   -0.5030 ho        1 MOL      0.363574
     80 H33         0.3890   -8.0270    2.2500 hc        1 MOL      0.107504
     81 H34        -0.9470   -7.4140    1.2940 hc        1 MOL      0.107504
     82 H35         0.4580   -8.3290    0.5690 hc        1 MOL      0.107504
     83 N9          2.4750   -3.8590    2.0610 n         1 MOL     -0.113828
     84 C26         3.4270   -2.7590    1.9470 c3        1 MOL      0.069115
     85 C27         4.1770   -2.8850    0.6280 c         1 MOL      0.213730
     86 O15         4.9840   -3.8130    0.3870 o         1 MOL     -0.556576
     87 C28         4.2860   -2.6970    3.2770 c3        1 MOL      0.250801
     88 C29         5.6150   -1.8840    3.2020 c3        1 MOL      0.020785
     89 C30         3.3100   -2.3980    4.5560 c3        1 MOL     -0.418676
     90 C31         5.3450   -0.3660    2.8260 c3        1 MOL     -0.179072
     91 H36         2.8830   -4.7170    2.4010 hn        1 MOL      0.165547
     92 H37         2.8210   -1.8600    1.8220 h1        1 MOL      0.021156
     93 H38         4.6980   -3.7000    3.3860 hc        1 MOL     -0.047962
     94 H39         6.2130   -2.4320    2.4850 hc        1 MOL     -0.010876
     95 H40         6.0320   -1.9830    4.2100 hc        1 MOL     -0.010876
     96 H41         2.9670   -1.3720    4.4110 hc        1 MOL      0.099359
     97 H42         2.5180   -3.1330    4.6120 hc        1 MOL      0.099359
     98 H43         3.9150   -2.4100    5.4590 hc        1 MOL      0.099359
     99 H44         5.1960   -0.2000    1.7510 hc        1 MOL      0.046927
    100 H45         4.5430    0.0570    3.4250 hc        1 MOL      0.046927
    101 H46         6.3030    0.1440    2.9560 hc        1 MOL      0.046927
    102 N10         3.9140   -2.0610   -0.3390 n         1 MOL      0.035097
    103 C32         4.4130   -2.1440   -1.6960 c3        1 MOL      0.101342
    104 C33         5.3340   -0.9860   -2.0310 c         1 MOL      0.469063
    105 O16         5.7250   -0.8110   -3.1880 o         1 MOL     -0.549589
    106 C34         3.2810   -2.3610   -2.6550 c3        1 MOL     -0.213310
    107 C35         2.2980   -3.4740   -2.1380 c         1 MOL      0.676083
    108 O17         2.5070   -4.6610   -2.3830 o         1 MOL     -0.649858
    109 O18         1.2990   -3.1760   -1.4700 o         1 MOL     -0.649858
    110 H47         3.2670   -1.3340   -0.0800 hn        1 MOL      0.065605
    111 H48         4.9510   -3.0840   -1.6670 h1        1 MOL      0.075263
    112 H49         3.6270   -2.6650   -3.6410 hc        1 MOL      0.032875
    113 H50         2.6920   -1.4640   -2.8280 hc        1 MOL      0.032875
    114 N11         5.8690   -0.2300   -1.0580 n         1 MOL     -0.524880
    115 C36         6.9780    0.7140   -1.2880 c3        1 MOL      0.489101
    116 C37         6.6300    1.9470   -0.4720 c         1 MOL      0.464194
    117 O19         6.2870    1.8190    0.7670 o         1 MOL     -0.575932
    118 C38         8.2390    0.1290   -0.7520 c3        1 MOL     -0.464883
    119 C39         9.3440    1.1360   -0.8080 ca        1 MOL      0.262867
    120 C40         9.7680    1.8290    0.3730 ca        1 MOL     -0.251658
    121 C41        10.1370    1.2000   -1.9420 ca        1 MOL     -0.251658
    122 C42        10.8980    2.7210    0.3140 ca        1 MOL     -0.054312
    123 C43        11.1720    2.1730   -1.9780 ca        1 MOL     -0.054312
    124 C44        11.6120    2.9560   -0.8670 ca        1 MOL     -0.186635
    125 H51         5.6610   -0.4390   -0.0840 hn        1 MOL      0.247397
    126 H52         7.1460    1.0520   -2.3130 h1        1 MOL     -0.027725
    127 H53         8.4710   -0.7090   -1.4170 hc        1 MOL      0.149224
    128 H54         7.9680   -0.2600    0.2240 hc        1 MOL      0.149224
    129 H55         9.2810    1.6950    1.3290 ha        1 MOL      0.154626
    130 H56         9.7880    0.7220   -2.8520 ha        1 MOL      0.154626
    131 H57        11.1590    3.2750    1.2020 ha        1 MOL      0.091177
    132 H58        11.7460    2.3080   -2.8890 ha        1 MOL      0.091177
    133 H59        12.3670    3.7100   -0.9650 ha        1 MOL      0.136173
    134 N12         6.8050    3.1750   -1.0170 n         1 MOL     -0.430398
    135 C45         6.7370    4.5140   -0.2590 c3        1 MOL      0.240326
    136 C46         5.3160    4.9030    0.2240 c         1 MOL      0.351923
    137 O20         5.0750    6.0550    0.2940 o         1 MOL     -0.544184
    138 C47         7.2960    5.6010   -1.2320 c3        1 MOL     -0.050414
    139 C48         8.2910    4.8140   -2.0130 c3        1 MOL     -0.051275
    140 C49         7.4830    3.5130   -2.3270 c3        1 MOL      0.002640
    141 H60         7.3930    4.5430    0.6120 h1        1 MOL      0.038144
    142 H61         6.5200    6.0360   -1.8630 hc        1 MOL      0.050059
    143 H62         7.7530    6.4220   -0.6790 hc        1 MOL      0.050059
    144 H63         8.5830    5.3030   -2.9470 hc        1 MOL      0.020619
    145 H64         9.1910    4.5030   -1.4640 hc        1 MOL      0.020619
    146 H65         6.7560    3.8010   -3.0750 h1        1 MOL      0.068458
    147 H66         8.1590    2.7210   -2.6690 h1        1 MOL      0.068458
    148 N13         4.4560    3.9590    0.5020 n         1 MOL     -0.032213
    149 C50         3.0610    4.2320    0.7570 c3        1 MOL     -0.301393
    150 C51         2.7380    4.8600    2.1080 c         1 MOL      0.559495
    151 O21         1.6880    5.3660    2.2520 o         1 MOL     -0.528626
    152 C52         2.1650    2.9370    0.6050 c3        1 MOL     -0.066371
    153 C53         2.6990    1.6810    1.3380 c3        1 MOL      0.156769
    154 C54         1.8120    0.5510    0.9770 c         1 MOL      0.632017
    155 O22         0.7340    0.2670    1.5650 o         1 MOL     -0.726402
    156 O23         2.0130   -0.0670   -0.0900 o         1 MOL     -0.726402
    157 H67         4.7610    3.0020    0.5040 hn        1 MOL      0.126611
    158 H68         2.6460    4.8270   -0.0480 h1        1 MOL      0.162781
    159 H69         2.2100    2.6990   -0.4610 hc        1 MOL      0.053698
    160 H70         1.1600    3.1640    0.9510 hc        1 MOL      0.053698
    161 H71         2.5580    1.8210    2.4080 hc        1 MOL     -0.041012
    162 H72         3.7310    1.4290    1.0630 hc        1 MOL     -0.041012
    163 N14         3.7430    4.9390    2.9810 n         1 MOL     -0.190353
    164 C55         3.7850    5.7110    4.2970 c3        1 MOL     -0.218102
    165 H73         3.2790    5.1350    5.0720 h1        1 MOL      0.101142
    166 H74         4.8230    5.8790    4.5890 h1        1 MOL      0.101142
    167 H75         3.2830    6.6700    4.1730 h1        1 MOL      0.101142
    168 H76         4.5280    4.3650    2.7030 hn        1 MOL      0.151800
    169 Ca1        -0.3050   -1.2860   -0.6670 Ca        1 MOL      1.672353
    170 O24        -0.6480    1.2670   -1.1970 oh        1 MOL     -0.857061
    171 H77        -1.2700    1.3230   -1.9230 ho        1 MOL      0.415111
    172 H78        -0.7360    2.1090   -0.7440 ho        1 MOL      0.415111
    173 O25        -2.3620   -1.4870    1.0860 oh        1 MOL     -0.857061
    174 H79        -2.1540   -0.7090    1.6060 ho        1 MOL      0.415111
    175 H80        -3.2680   -1.3450    0.8080 ho        1 MOL      0.415111
    176 O26         0.0900   -1.1000   -3.2270 oh        1 MOL     -0.857061
    177 H81         0.0530   -1.8020   -3.8780 ho        1 MOL      0.415111
    178 H82         0.6340   -0.4280   -3.6240 ho        1 MOL      0.415111
@<TRIPOS>BOND
     1    1    2 1   
     2    1    4 1   
     3    1    5 1   
     4    1    6 1   
     5    2    3 2   
     6    2    7 1   
     7    7    8 1   
     8    7   15 1   
     9    8    9 1   
    10    8   11 1   
    11    8   16 1   
    12    9   10 2   
    13    9   19 1   
    14   11   12 1   
    15   11   17 1   
    16   11   18 1   
    17   12   13 1   
    18   12   14 1   
    19   19   20 1   
    20   19   24 1   
    21   20   21 1   
    22   20   23 1   
    23   20   25 1   
    24   21   22 2   
    25   21   29 1   
    26   23   26 1   
    27   23   27 1   
    28   23   28 1   
    29   29   30 1   
    30   29   37 1   
    31   30   31 1   
    32   30   33 1   
    33   30   38 1   
    34   31   32 2   
    35   31   41 1   
    36   33   34 1   
    37   33   39 1   
    38   33   40 1   
    39   34   35 1   
    40   34   36 1   
    41   41   42 1   
    42   41   45 1   
    43   42   43 1   
    44   42   46 1   
    45   42   47 1   
    46   43   44 2   
    47   43   48 1   
    48   48   49 1   
    49   48   56 1   
    50   49   50 1   
    51   49   52 1   
    52   49   57 1   
    53   50   51 2   
    54   50   62 1   
    55   52   53 1   
    56   52   58 1   
    57   52   59 1   
    58   53   54 1   
    59   53   55 2   
    60   54   60 1   
    61   54   61 1   
    62   62   63 1   
    63   62   66 1   
    64   63   64 1   
    65   63   67 1   
    66   63   68 1   
    67   64   65 2   
    68   64   69 1   
    69   69   70 1   
    70   69   76 1   
    71   70   71 1   
    72   70   73 1   
    73   70   77 1   
    74   71   72 2   
    75   71   83 1   
    76   73   74 1   
    77   73   75 1   
    78   73   78 1   
    79   74   80 1   
    80   74   81 1   
    81   74   82 1   
    82   75   79 1   
    83   83   84 1   
    84   83   91 1   
    85   84   85 1   
    86   84   87 1   
    87   84   92 1   
    88   85   86 2   
    89   85  102 1   
    90   87   88 1   
    91   87   89 1   
    92   87   93 1   
    93   88   90 1   
    94   88   94 1   
    95   88   95 1   
    96   89   96 1   
    97   89   97 1   
    98   89   98 1   
    99   90   99 1   
   100   90  100 1   
   101   90  101 1   
   102  102  103 1   
   103  102  110 1   
   104  103  104 1   
   105  103  106 1   
   106  103  111 1   
   107  104  105 2   
   108  104  114 1   
   109  106  107 1   
   110  106  112 1   
   111  106  113 1   
   112  107  108 1   
   113  107  109 1   
   114  114  115 1   
   115  114  125 1   
   116  115  116 1   
   117  115  118 1   
   118  115  126 1   
   119  116  117 2   
   120  116  134 1   
   121  118  119 1   
   122  118  127 1   
   123  118  128 1   
   124  119  120 ar  
   125  119  121 ar  
   126  120  122 ar  
   127  120  129 1   
   128  121  123 ar  
   129  121  130 1   
   130  122  124 ar  
   131  122  131 1   
   132  123  124 ar  
   133  123  132 1   
   134  124  133 1   
   135  134  135 1   
   136  134  140 1   
   137  135  136 1   
   138  135  138 1   
   139  135  141 1   
   140  136  137 2   
   141  136  148 1   
   142  138  139 1   
   143  138  142 1   
   144  138  143 1   
   145  139  140 1   
   146  139  144 1   
   147  139  145 1   
   148  140  146 1   
   149  140  147 1   
   150  148  149 1   
   151  148  157 1   
   152  149  150 1   
   153  149  152 1   
   154  149  158 1   
   155  150  151 2   
   156  150  163 1   
   157  152  153 1   
   158  152  159 1   
   159  152  160 1   
   160  153  154 1   
   161  153  161 1   
   162  153  162 1   
   163  154  155 1   
   164  154  156 1   
   165  163  164 1   
   166  163  168 1   
   167  164  165 1   
   168  164  166 1   
   169  164  167 1   
   170  170  171 1   
   171  170  172 1   
   172  173  174 1   
   173  173  175 1   
   174  176  177 1   
   175  176  178 1   
@<TRIPOS>SUBSTRUCTURE
     1 MOL         1 TEMP              0 ****  ****    0 ROOT
