@<TRIPOS>MOLECULE
MOL
  192   187     1     0     0
SMALL
resp


@<TRIPOS>ATOM
      1 C1          9.9260    0.6540    1.8130 c3        1 MOL     -0.679373
      2 C2          8.6190    0.5620    1.0660 c         1 MOL      0.854482
      3 O1          7.5400    1.0700    1.4640 o         1 MOL     -0.689075
      4 H1          9.9290   -0.0690    2.6290 hc        1 MOL      0.170833
      5 H2         10.7500    0.4360    1.1330 hc        1 MOL      0.170833
      6 H3         10.0450    1.6590    2.2170 hc        1 MOL      0.170833
      7 N1          8.6060   -0.1780   -0.0480 n         1 MOL     -0.533115
      8 C3          7.4910   -0.2380   -1.0920 c3        1 MOL     -0.135625
      9 C4          6.6590   -1.5340   -1.0960 c         1 MOL      0.623946
     10 O2          6.0800   -1.9060   -2.1720 o         1 MOL     -0.437271
     11 C5          8.1620    0.0760   -2.4450 c3        1 MOL     -0.116727
     12 C6          9.1470   -1.0580   -2.8120 c         1 MOL      0.688895
     13 O3          9.4820   -2.0260   -2.0440 o         1 MOL     -0.646328
     14 O4          9.5540   -1.0060   -3.9840 o         1 MOL     -0.646328
     15 H4          9.5460   -0.3340   -0.4020 hn        1 MOL      0.227747
     16 H5          6.8660    0.6130   -0.8430 h1        1 MOL      0.131839
     17 H6          8.6320    1.0610   -2.3950 hc        1 MOL      0.063272
     18 H7          7.4280    0.1440   -3.2320 hc        1 MOL      0.063272
     19 N2          6.5120   -2.2530    0.0220 n         1 MOL     -0.577554
     20 C7          6.0410   -3.6310    0.1290 c3        1 MOL      0.016628
     21 C8          4.5510   -3.8000   -0.4150 c         1 MOL      0.488550
     22 O5          4.3560   -4.8750   -1.0400 o         1 MOL     -0.528160
     23 C9          6.1030   -4.1040    1.5830 c3        1 MOL     -0.366676
     24 C10         7.5870   -4.1290    1.8960 c3        1 MOL      0.374231
     25 C11         7.8440   -4.5320    3.3310 c3        1 MOL     -0.132877
     26 C12         9.3090   -4.1420    3.5560 c3        1 MOL      0.227534
     27 N3          9.8130   -4.3050    4.9680 n4        1 MOL     -0.330338
     28 H8          6.8960   -1.8390    0.8590 hn        1 MOL      0.313682
     29 H9          6.6740   -4.2240   -0.5360 h1        1 MOL      0.135073
     30 H10         5.8490   -5.1640    1.5500 hc        1 MOL      0.112454
     31 H11         5.3870   -3.5710    2.2100 hc        1 MOL      0.112454
     32 H12         7.9630   -3.1140    1.7890 hc        1 MOL     -0.029856
     33 H13         8.1390   -4.7750    1.2050 hc        1 MOL     -0.029856
     34 H14         7.6650   -5.5960    3.4560 hc        1 MOL      0.026396
     35 H15         7.2990   -3.8640    4.0030 hc        1 MOL      0.026396
     36 H16         9.4560   -3.1460    3.1510 hx        1 MOL      0.010944
     37 H17         9.9350   -4.7480    2.8990 hx        1 MOL      0.010944
     38 H18         9.8070   -5.2610    5.3180 hn        1 MOL      0.265096
     39 H19        10.7520   -3.9850    5.1640 hn        1 MOL      0.265096
     40 H20         9.2860   -3.7480    5.6290 hn        1 MOL      0.265096
     41 N4          3.5130   -3.0040   -0.0060 n         1 MOL     -0.357369
     42 C13         3.4710   -1.7170    0.6650 c3        1 MOL      0.033207
     43 C14         3.5640   -0.5170   -0.3390 c         1 MOL      0.039254
     44 O6          3.2970   -0.5760   -1.5530 o         1 MOL     -0.307130
     45 C15         2.3120   -1.5460    1.5900 c3        1 MOL     -0.116671
     46 C16         0.9520   -1.9820    1.0620 c         1 MOL      0.511366
     47 O7          0.5480   -1.7020   -0.1180 o         1 MOL     -0.591725
     48 O8          0.3680   -2.8310    1.7080 o         1 MOL     -0.591725
     49 H21         2.6140   -3.3960   -0.2370 hn        1 MOL      0.338886
     50 H22         4.3200   -1.6120    1.3350 h1        1 MOL      0.065414
     51 H23         2.1460   -0.6460    2.1590 hc        1 MOL      0.049139
     52 H24         2.5120   -2.2240    2.4290 hc        1 MOL      0.049139
     53 N5          3.9610    0.6430    0.2260 n         1 MOL     -0.011988
     54 C17         4.2170    1.8850   -0.5120 c3        1 MOL     -0.534539
     55 C18         2.9490    2.4780   -1.1180 c         1 MOL      0.807246
     56 O9          1.8700    2.0130   -0.9000 o         1 MOL     -0.651557
     57 H25         4.0640    0.5680    1.2320 hn        1 MOL      0.224423
     58 H26         4.8940    1.6700   -1.3460 h1        1 MOL      0.198007
     59 H27         4.5130    2.5580    0.2850 h1        1 MOL      0.198007
     60 N6          3.1250    3.4910   -1.9870 n         1 MOL     -0.606681
     61 C19         2.0490    4.2030   -2.6810 c3        1 MOL      0.240963
     62 C20         2.4320    5.7110   -2.8230 c         1 MOL      0.491665
     63 O10         3.5050    6.1790   -2.9780 o         1 MOL     -0.506166
     64 C21         1.8590    3.5290   -4.0270 c3        1 MOL     -0.077910
     65 C22         1.4570    2.0600   -4.0740 c         1 MOL      0.586538
     66 O11         1.9620    1.3520   -4.9960 o         1 MOL     -0.639938
     67 O12         0.5910    1.5930   -3.2870 o         1 MOL     -0.639938
     68 H28         4.0580    3.6400   -2.3420 hn        1 MOL      0.304759
     69 H29         1.1270    4.0940   -2.0990 h1        1 MOL      0.008024
     70 H30         2.6590    3.7950   -4.7280 hc        1 MOL      0.026525
     71 H31         1.0140    3.9910   -4.5250 hc        1 MOL      0.026525
     72 N7          1.4230    6.6440   -2.8380 n         1 MOL     -0.485683
     73 C23        -0.0700    6.4150   -2.7930 c3        1 MOL     -0.067432
     74 C24        -0.6700    6.1270   -1.4070 c         1 MOL      0.796110
     75 O13        -0.2830    6.6890   -0.4070 o         1 MOL     -0.593857
     76 H32         1.7070    7.5860   -3.0870 hn        1 MOL      0.327466
     77 H33        -0.3190    5.6010   -3.4740 h1        1 MOL      0.048722
     78 H34        -0.5640    7.3150   -3.1360 h1        1 MOL      0.048722
     79 N8         -1.7040    5.3440   -1.4230 n         1 MOL     -0.672998
     80 C25        -2.4050    4.8580   -0.2240 c3        1 MOL     -0.099824
     81 C26        -1.5950    3.7680    0.4660 c         1 MOL      0.962600
     82 O14        -1.0400    2.8840   -0.1490 o         1 MOL     -0.755969
     83 C27        -3.7620    4.3030   -0.6020 c3        1 MOL      0.450181
     84 C28        -4.6230    4.0860    0.6440 c3        1 MOL     -0.469717
     85 O15        -3.7600    3.1250   -1.3850 oh        1 MOL     -0.645413
     86 H35        -2.0820    5.0700   -2.3170 hn        1 MOL      0.308830
     87 H36        -2.7040    5.7260    0.3710 h1        1 MOL      0.109841
     88 H37        -4.3440    5.0140   -1.2040 h1        1 MOL      0.012030
     89 H38        -4.4240    3.0710   -2.0790 ho        1 MOL      0.408915
     90 H39        -4.2910    3.3060    1.3280 hc        1 MOL      0.121069
     91 H40        -4.7260    5.0180    1.1980 hc        1 MOL      0.121069
     92 H41        -5.5950    3.7630    0.2660 hc        1 MOL      0.121069
     93 N9         -1.5090    3.8130    1.7820 n         1 MOL     -0.918198
     94 C29        -0.6120    3.0090    2.5820 c3        1 MOL      0.702746
     95 C30        -0.7660    1.5170    2.3120 c         1 MOL      0.103832
     96 O16        -0.0650    0.8740    1.5480 o         1 MOL     -0.533955
     97 C31         0.8790    3.5330    2.5710 c3        1 MOL      0.081012
     98 C32         0.8710    5.0270    2.7640 c3        1 MOL     -0.002169
     99 C33         1.5650    2.8490    3.7330 c3        1 MOL     -0.412649
    100 C34         2.1710    5.5310    3.3160 c3        1 MOL     -0.237124
    101 H42        -1.9670    4.6350    2.1680 hn        1 MOL      0.308501
    102 H43        -0.8550    3.0740    3.6400 h1        1 MOL     -0.086605
    103 H44         1.4130    3.1850    1.6850 hc        1 MOL      0.084277
    104 H45         0.0790    5.4920    3.3450 hc        1 MOL      0.020907
    105 H46         0.7510    5.3460    1.7300 hc        1 MOL      0.020907
    106 H47         1.2040    3.2650    4.6780 hc        1 MOL      0.099514
    107 H48         1.4590    1.7700    3.7490 hc        1 MOL      0.099514
    108 H49         2.6150    3.0790    3.5410 hc        1 MOL      0.099514
    109 H50         2.2800    5.1930    4.3450 hc        1 MOL      0.063149
    110 H51         2.9730    5.2520    2.6230 hc        1 MOL      0.063149
    111 H52         2.1870    6.6170    3.2560 hc        1 MOL      0.063149
    112 N10        -1.8150    1.0250    2.9670 n         1 MOL     -0.066732
    113 C35        -2.1180   -0.4350    3.0010 c3        1 MOL     -0.192106
    114 C36        -3.6630   -0.6180    3.1750 c         1 MOL      0.494027
    115 O17        -4.1470   -1.7260    3.4890 o         1 MOL     -0.496234
    116 C37        -1.3930   -1.2440    4.1850 c3        1 MOL      0.279914
    117 C38        -1.8230   -0.9870    5.5570 c3        1 MOL     -0.317215
    118 O18         0.0260   -1.0480    4.3270 oh        1 MOL     -0.504694
    119 H53        -2.2860    1.6430    3.6090 hn        1 MOL      0.197450
    120 H54        -1.8580   -0.9170    2.0650 h1        1 MOL      0.144680
    121 H55        -1.5700   -2.3000    3.9790 h1        1 MOL      0.066773
    122 H56         0.4180   -1.6120    3.6570 ho        1 MOL      0.300453
    123 H57        -2.8550   -1.2440    5.7810 hc        1 MOL      0.079162
    124 H58        -1.1930   -1.6440    6.1700 hc        1 MOL      0.079162
    125 H59        -1.5490    0.0040    5.9130 hc        1 MOL      0.079162
    126 N11        -4.3980    0.5260    2.9520 n         1 MOL     -0.329738
    127 C39        -5.9390    0.5430    3.0330 c3        1 MOL     -0.017271
    128 C40        -6.3800   -0.0110    1.6520 c         1 MOL      0.275978
    129 O19        -6.5390    0.7400    0.6640 o         1 MOL     -0.462551
    130 C41        -6.5980    1.8980    3.3180 c3        1 MOL      0.316101
    131 C42        -8.1080    1.7250    3.5410 c3        1 MOL     -0.288327
    132 O20        -6.0110    2.3850    4.4830 oh        1 MOL     -0.648192
    133 H60        -3.9390    1.3910    2.6680 hn        1 MOL      0.232521
    134 H61        -6.1290   -0.1610    3.8520 h1        1 MOL      0.115665
    135 H62        -6.4810    2.5610    2.4650 h1        1 MOL      0.020816
    136 H63        -6.6090    2.9700    4.9420 ho        1 MOL      0.420234
    137 H64        -8.5390    1.1460    2.7200 hc        1 MOL      0.074499
    138 H65        -8.2280    1.0900    4.4140 hc        1 MOL      0.074499
    139 H66        -8.7070    2.6100    3.7360 hc        1 MOL      0.074499
    140 N12        -6.5740   -1.3540    1.6680 n         1 MOL     -0.240622
    141 C43        -6.5450   -2.2650    0.5010 c3        1 MOL      0.122217
    142 C44        -5.2220   -2.2060   -0.2520 c         1 MOL      0.370046
    143 O21        -4.5540   -1.1900   -0.1970 o         1 MOL     -0.426911
    144 C45        -7.6810   -1.9630   -0.4860 c3        1 MOL     -0.279519
    145 C46        -9.0500   -2.2130    0.1190 c3        1 MOL      0.118271
    146 C47       -10.2120   -1.7710   -0.8300 c3        1 MOL     -0.001648
    147 C48       -11.4480   -2.5840   -0.6430 c3        1 MOL      0.038515
    148 N13       -12.4510   -2.2420   -1.6690 n4        1 MOL     -0.265691
    149 H67        -6.5720   -1.7080    2.6130 hn        1 MOL      0.213169
    150 H68        -6.5930   -3.3220    0.7560 h1        1 MOL      0.020591
    151 H69        -7.4900   -2.4450   -1.4450 hc        1 MOL      0.086380
    152 H70        -7.6110   -0.8930   -0.6970 hc        1 MOL      0.086380
    153 H71        -9.1140   -1.8940    1.1650 hc        1 MOL     -0.005413
    154 H72        -9.1320   -3.2980    0.1470 hc        1 MOL     -0.005413
    155 H73       -10.0370   -1.9010   -1.8960 hc        1 MOL      0.030332
    156 H74       -10.3860   -0.6990   -0.7370 hc        1 MOL      0.030332
    157 H75       -11.7930   -2.3640    0.3710 hx        1 MOL      0.063824
    158 H76       -11.2290   -3.6410   -0.7710 hx        1 MOL      0.063824
    159 H77       -12.5600   -1.2690   -1.9070 hn        1 MOL      0.263289
    160 H78       -12.1680   -2.7890   -2.4690 hn        1 MOL      0.263289
    161 H79       -13.4000   -2.4670   -1.4180 hn        1 MOL      0.263289
    162 N14        -4.8240   -3.2590   -0.8930 n         1 MOL     -0.212164
    163 C49        -3.7110   -3.1870   -1.8370 c3        1 MOL      0.005082
    164 C50        -2.3720   -2.8540   -1.2160 c         1 MOL      0.420192
    165 O22        -1.7100   -1.9340   -1.6600 o         1 MOL     -0.529689
    166 C51        -3.7460   -4.4030   -2.7920 c3        1 MOL      0.112044
    167 C52        -4.9000   -4.4300   -3.8890 c3        1 MOL     -0.223098
    168 C53        -5.3380   -5.8180   -4.4980 c         1 MOL      0.689962
    169 O23        -6.0080   -5.7600   -5.5540 o         1 MOL     -0.654833
    170 O24        -5.0750   -6.8300   -3.8190 o         1 MOL     -0.654833
    171 H80        -5.4050   -4.0850   -0.8020 hn        1 MOL      0.251800
    172 H81        -3.9580   -2.3520   -2.5040 h1        1 MOL      0.057031
    173 H82        -3.9600   -5.2560   -2.1460 hc        1 MOL      0.011758
    174 H83        -2.7890   -4.6340   -3.2680 hc        1 MOL      0.011758
    175 H84        -4.6310   -3.7030   -4.6590 hc        1 MOL      0.016745
    176 H85        -5.7430   -4.0250   -3.3300 hc        1 MOL      0.016745
    177 N15        -1.8400   -3.5280   -0.1630 n         1 MOL     -0.320326
    178 C54        -2.2560   -4.7210    0.5640 c3        1 MOL     -0.034120
    179 H86        -3.1700   -4.5080    1.1180 h1        1 MOL      0.026398
    180 H87        -2.4390   -5.5310   -0.1420 h1        1 MOL      0.026398
    181 H88        -1.4700   -5.0160    1.2590 h1        1 MOL      0.026398
    182 H89        -0.9810   -3.1360    0.1820 hn        1 MOL      0.336441
    183 Ca1        -0.3530    0.5120   -1.2080 Ca        1 MOL      1.812674
    184 O25        -2.4510    1.2920   -3.0070 oh        1 MOL     -0.886431
    185 H90        -2.1140    1.6250   -3.8320 ho        1 MOL      0.414591
    186 H91        -3.2820    1.7520   -2.8760 ho        1 MOL      0.414591
    187 O26        -2.7640    0.6620   -0.1180 oh        1 MOL     -0.886431
    188 H92        -3.5500    0.1480    0.0530 ho        1 MOL      0.414591
    189 H93        -3.0690    1.4500   -0.5560 ho        1 MOL      0.414591
    190 O27         0.7290   -1.0680   -3.2130 oh        1 MOL     -0.886431
    191 H94         0.8420   -0.2680   -3.7280 ho        1 MOL      0.414591
    192 H95         1.4050   -1.6690   -3.5580 ho        1 MOL      0.414591
@<TRIPOS>BOND
     1    1    2 1   
     2    1    4 1   
     3    1    5 1   
     4    1    6 1   
     5    2    3 2   
     6    2    7 1   
     7    7    8 1   
     8    7   15 1   
     9    8    9 1   
    10    8   11 1   
    11    8   16 1   
    12    9   10 2   
    13    9   19 1   
    14   11   12 1   
    15   11   17 1   
    16   11   18 1   
    17   12   13 1   
    18   12   14 1   
    19   19   20 1   
    20   19   28 1   
    21   20   21 1   
    22   20   23 1   
    23   20   29 1   
    24   21   22 2   
    25   21   41 1   
    26   23   24 1   
    27   23   30 1   
    28   23   31 1   
    29   24   25 1   
    30   24   32 1   
    31   24   33 1   
    32   25   26 1   
    33   25   34 1   
    34   25   35 1   
    35   26   27 1   
    36   26   36 1   
    37   26   37 1   
    38   27   38 1   
    39   27   39 1   
    40   27   40 1   
    41   41   42 1   
    42   41   49 1   
    43   42   43 1   
    44   42   45 1   
    45   42   50 1   
    46   43   44 2   
    47   43   53 1   
    48   45   46 1   
    49   45   51 1   
    50   45   52 1   
    51   46   47 1   
    52   46   48 1   
    53   53   54 1   
    54   53   57 1   
    55   54   55 1   
    56   54   58 1   
    57   54   59 1   
    58   55   56 2   
    59   55   60 1   
    60   60   61 1   
    61   60   68 1   
    62   61   62 1   
    63   61   64 1   
    64   61   69 1   
    65   62   63 2   
    66   62   72 1   
    67   64   65 1   
    68   64   70 1   
    69   64   71 1   
    70   65   66 1   
    71   65   67 1   
    72   72   73 1   
    73   72   76 1   
    74   73   74 1   
    75   73   77 1   
    76   73   78 1   
    77   74   75 2   
    78   74   79 1   
    79   79   80 1   
    80   79   86 1   
    81   80   81 1   
    82   80   83 1   
    83   80   87 1   
    84   81   82 2   
    85   81   93 1   
    86   83   84 1   
    87   83   85 1   
    88   83   88 1   
    89   84   90 1   
    90   84   91 1   
    91   84   92 1   
    92   85   89 1   
    93   93   94 1   
    94   93  101 1   
    95   94   95 1   
    96   94   97 1   
    97   94  102 1   
    98   95   96 2   
    99   95  112 1   
   100   97   98 1   
   101   97   99 1   
   102   97  103 1   
   103   98  100 1   
   104   98  104 1   
   105   98  105 1   
   106   99  106 1   
   107   99  107 1   
   108   99  108 1   
   109  100  109 1   
   110  100  110 1   
   111  100  111 1   
   112  112  113 1   
   113  112  119 1   
   114  113  114 1   
   115  113  116 1   
   116  113  120 1   
   117  114  115 2   
   118  114  126 1   
   119  116  117 1   
   120  116  118 1   
   121  116  121 1   
   122  117  123 1   
   123  117  124 1   
   124  117  125 1   
   125  118  122 1   
   126  126  127 1   
   127  126  133 1   
   128  127  128 1   
   129  127  130 1   
   130  127  134 1   
   131  128  129 2   
   132  128  140 1   
   133  130  131 1   
   134  130  132 1   
   135  130  135 1   
   136  131  137 1   
   137  131  138 1   
   138  131  139 1   
   139  132  136 1   
   140  140  141 1   
   141  140  149 1   
   142  141  142 1   
   143  141  144 1   
   144  141  150 1   
   145  142  143 2   
   146  142  162 1   
   147  144  145 1   
   148  144  151 1   
   149  144  152 1   
   150  145  146 1   
   151  145  153 1   
   152  145  154 1   
   153  146  147 1   
   154  146  155 1   
   155  146  156 1   
   156  147  148 1   
   157  147  157 1   
   158  147  158 1   
   159  148  159 1   
   160  148  160 1   
   161  148  161 1   
   162  162  163 1   
   163  162  171 1   
   164  163  164 1   
   165  163  166 1   
   166  163  172 1   
   167  164  165 2   
   168  164  177 1   
   169  166  167 1   
   170  166  173 1   
   171  166  174 1   
   172  167  168 1   
   173  167  175 1   
   174  167  176 1   
   175  168  169 1   
   176  168  170 1   
   177  177  178 1   
   178  177  182 1   
   179  178  179 1   
   180  178  180 1   
   181  178  181 1   
   182  184  185 1   
   183  184  186 1   
   184  187  188 1   
   185  187  189 1   
   186  190  191 1   
   187  190  192 1   
@<TRIPOS>SUBSTRUCTURE
     1 MOL         1 TEMP              0 ****  ****    0 ROOT
