@<TRIPOS>MOLECULE
MOL
  198   191     1     0     0
SMALL
resp


@<TRIPOS>ATOM
      1 C1         -1.5330    6.9570   -4.2020 c3        1 MOL     -0.349362
      2 C2         -1.0180    6.0180   -3.1260 c         1 MOL      0.543552
      3 O1         -0.2230    5.0520   -3.3370 o         1 MOL     -0.566448
      4 H1         -0.8730    6.9120   -5.0680 hc        1 MOL      0.095021
      5 H2         -2.5390    6.6580   -4.4950 hc        1 MOL      0.095021
      6 H3         -1.5530    7.9770   -3.8150 hc        1 MOL      0.095021
      7 N1         -1.3490    6.3730   -1.8800 n         1 MOL     -0.208488
      8 C3         -0.8560    5.7310   -0.6320 c3        1 MOL     -0.206026
      9 C4         -1.6430    4.4780   -0.2190 c         1 MOL      0.471996
     10 O2         -1.3300    3.8890    0.7880 o         1 MOL     -0.484723
     11 C5         -0.9960    6.7130    0.5730 c3        1 MOL     -0.210815
     12 C6         -2.3990    7.2970    0.7530 c         1 MOL      0.689036
     13 O3         -2.9190    7.1720    1.8720 o         1 MOL     -0.686031
     14 O4         -3.0670    7.8050   -0.1950 o         1 MOL     -0.686031
     15 H4         -1.9430    7.1680   -1.7090 hn        1 MOL      0.190458
     16 H5          0.1680    5.3750   -0.7750 h1        1 MOL      0.145657
     17 H6         -0.3520    7.5770    0.3920 hc        1 MOL      0.091790
     18 H7         -0.7300    6.2870    1.5400 hc        1 MOL      0.091790
     19 N2         -2.7230    4.1140   -0.9270 n         1 MOL     -0.332185
     20 C7         -3.6600    3.0590   -0.6680 c3        1 MOL      0.312636
     21 C8         -3.5440    1.8790   -1.7510 c         1 MOL      0.408169
     22 O5         -3.3120    2.1440   -2.9100 o         1 MOL     -0.500959
     23 C9         -5.0760    3.7530   -0.6970 c3        1 MOL     -0.380789
     24 C10        -5.1610    4.8710    0.3430 c3        1 MOL      0.164140
     25 C11        -6.4710    5.4220    0.6480 c3        1 MOL     -0.496396
     26 C12        -6.4010    6.5410    1.7240 c3        1 MOL      0.012133
     27 N3         -5.5880    7.7730    1.3590 n4        1 MOL     -0.357854
     28 H8         -2.8990    4.6430   -1.7800 hn        1 MOL      0.199567
     29 H9         -3.3940    2.6950    0.3210 h1        1 MOL     -0.020159
     30 H10        -5.8720    3.0560   -0.4390 hc        1 MOL      0.105940
     31 H11        -5.2440    3.9970   -1.7380 hc        1 MOL      0.105940
     32 H12        -4.5000    5.7010    0.0700 hc        1 MOL      0.096790
     33 H13        -4.7770    4.6040    1.3250 hc        1 MOL      0.096790
     34 H14        -7.0710    4.6390    1.1020 hc        1 MOL      0.155955
     35 H15        -7.0810    5.7440   -0.1940 hc        1 MOL      0.155955
     36 H16        -6.1300    6.1200    2.6840 hx        1 MOL      0.098662
     37 H17        -7.4360    6.8890    1.7890 hx        1 MOL      0.098662
     38 H18        -5.6910    8.4670    2.0900 hn        1 MOL      0.311283
     39 H19        -4.6410    7.4470    1.2250 hn        1 MOL      0.311283
     40 H20        -5.9610    8.0790    0.4650 hn        1 MOL      0.311283
     41 N4         -3.7960    0.5770   -1.3890 n         1 MOL     -0.346842
     42 C13        -4.1440   -0.0670   -0.0430 c3        1 MOL     -0.035994
     43 C14        -5.4460    0.4870    0.6720 c         1 MOL      0.564713
     44 O6         -5.4130    0.8890    1.8380 o         1 MOL     -0.568386
     45 C15        -2.9110   -0.1030    0.7920 c3        1 MOL     -0.096365
     46 C16        -1.8610   -0.9830    0.1530 c         1 MOL      0.232980
     47 O7         -0.6730   -0.6430    0.1120 o         1 MOL     -0.603588
     48 O8         -2.1980   -2.0520   -0.4360 o         1 MOL     -0.603588
     49 H21        -3.8400   -0.0200   -2.2050 hn        1 MOL      0.236743
     50 H22        -4.4480   -1.1050   -0.1480 h1        1 MOL      0.153279
     51 H23        -3.0840   -0.5650    1.7570 hc        1 MOL      0.100082
     52 H24        -2.4490    0.8310    1.0920 hc        1 MOL      0.100082
     53 N5         -6.6310    0.5620    0.0470 n         1 MOL     -0.498618
     54 C17        -7.0700   -0.1190   -1.1300 c3        1 MOL      0.033806
     55 C18        -7.9620   -1.3000   -0.8330 c         1 MOL      0.596592
     56 O9         -8.9210   -1.1780   -0.0330 o         1 MOL     -0.554668
     57 H25        -7.3510    0.8950    0.6640 hn        1 MOL      0.310976
     58 H26        -6.1900   -0.5250   -1.6170 h1        1 MOL      0.065411
     59 H27        -7.6020    0.5550   -1.8120 h1        1 MOL      0.065411
     60 N6         -7.8620   -2.4580   -1.4650 n         1 MOL     -0.564372
     61 C19        -7.0190   -2.6730   -2.6220 c3        1 MOL      0.058906
     62 C20        -5.6460   -3.2410   -2.2440 c         1 MOL      0.548116
     63 O10        -4.6540   -2.8900   -2.8030 o         1 MOL     -0.577923
     64 C21        -7.7860   -3.5410   -3.6840 c3        1 MOL     -0.279847
     65 C22        -9.2060   -2.9450   -3.8770 c         1 MOL      0.763743
     66 O11        -9.2290   -1.9080   -4.6250 o         1 MOL     -0.661615
     67 O12       -10.2230   -3.4870   -3.3750 o         1 MOL     -0.661615
     68 H28        -8.5190   -3.1980   -1.2820 hn        1 MOL      0.359596
     69 H29        -6.6990   -1.7490   -3.1090 h1        1 MOL      0.069689
     70 H30        -7.7760   -4.5280   -3.2280 hc        1 MOL      0.058904
     71 H31        -7.4320   -3.6440   -4.7140 hc        1 MOL      0.058904
     72 N7         -5.5610   -4.1210   -1.2670 n         1 MOL     -0.418309
     73 C23        -4.3430   -4.5240   -0.5680 c3        1 MOL     -0.012353
     74 C24        -4.3050   -3.8960    0.8230 c         1 MOL      0.645369
     75 O13        -5.2540   -3.4160    1.3940 o         1 MOL     -0.540163
     76 H32        -6.4850   -4.2850   -0.8940 hn        1 MOL      0.262028
     77 H33        -3.5430   -4.1330   -1.1880 h1        1 MOL      0.065818
     78 H34        -4.2960   -5.6100   -0.4730 h1        1 MOL      0.065818
     79 N8         -3.1640   -4.1750    1.5630 n         1 MOL     -0.729563
     80 C25        -2.8670   -3.6920    2.9210 c3        1 MOL      0.429672
     81 C26        -1.5950   -2.8000    2.9980 c         1 MOL      0.597537
     82 O14        -0.7080   -3.0170    2.1980 o         1 MOL     -0.570706
     83 C27        -2.7420   -4.8970    3.9190 c3        1 MOL      0.105437
     84 C28        -2.6680   -4.4230    5.3470 c3        1 MOL     -0.235965
     85 O15        -1.6050   -5.8040    3.7110 oh        1 MOL     -0.627885
     86 H35        -2.4210   -4.6730    1.1040 hn        1 MOL      0.302320
     87 H36        -3.6740   -3.0450    3.2700 h1        1 MOL      0.016206
     88 H37        -3.6960   -5.4050    3.7610 h1        1 MOL      0.049280
     89 H38        -1.7050   -6.5830    4.2530 ho        1 MOL      0.420715
     90 H39        -2.6970   -5.2870    5.9990 hc        1 MOL      0.062695
     91 H40        -1.7470   -3.8810    5.5830 hc        1 MOL      0.062695
     92 H41        -3.4510   -3.7100    5.6020 hc        1 MOL      0.062695
     93 N9         -1.5510   -1.7330    3.8090 n         1 MOL     -0.505706
     94 C29        -0.5610   -0.6340    3.8620 c3        1 MOL     -0.035486
     95 C30         0.7030   -1.1480    4.5660 c         1 MOL      0.593804
     96 O16         0.6660   -1.4430    5.7660 o         1 MOL     -0.523140
     97 C31        -1.2100    0.6010    4.4960 c3        1 MOL      0.084416
     98 C32        -0.3790    1.8830    4.5560 c3        1 MOL     -0.184446
     99 C33        -1.8990    0.3810    5.8590 c3        1 MOL     -0.293632
    100 C34         0.2840    2.1740    3.1390 c3        1 MOL     -0.499525
    101 H42        -2.3610   -1.5550    4.3770 hn        1 MOL      0.287006
    102 H43        -0.2430   -0.2910    2.8690 h1        1 MOL      0.122275
    103 H44        -2.0040    0.8620    3.8060 hc        1 MOL      0.044101
    104 H45         0.3640    1.9180    5.3610 hc        1 MOL      0.103321
    105 H46        -0.9910    2.7820    4.6610 hc        1 MOL      0.103321
    106 H47        -1.1020    0.2910    6.6020 hc        1 MOL      0.075289
    107 H48        -2.4940    1.2230    6.2210 hc        1 MOL      0.075289
    108 H49        -2.3890   -0.5710    6.0290 hc        1 MOL      0.075289
    109 H50         1.1440    1.5260    2.9870 hc        1 MOL      0.150332
    110 H51        -0.4980    2.0540    2.4020 hc        1 MOL      0.150332
    111 H52         0.5590    3.2220    3.2440 hc        1 MOL      0.150332
    112 N10         1.8370   -1.1810    3.8140 n         1 MOL     -0.271202
    113 C35         3.2230   -1.4080    4.3820 c3        1 MOL     -0.460688
    114 C36         4.3150   -0.5160    3.7130 c         1 MOL      0.568022
    115 O17         5.4430   -0.3580    4.1790 o         1 MOL     -0.514405
    116 C37         3.6620   -2.8920    4.3230 c3        1 MOL      0.401507
    117 C38         3.6670   -3.5590    2.9040 c3        1 MOL     -0.300076
    118 O18         2.7370   -3.5970    5.1620 oh        1 MOL     -0.590800
    119 H53         1.7640   -1.0530    2.8160 hn        1 MOL      0.261190
    120 H54         3.1760   -1.0980    5.4210 h1        1 MOL      0.216697
    121 H55         4.6570   -2.9760    4.7550 h1        1 MOL      0.065130
    122 H56         1.9160   -3.4350    4.6930 ho        1 MOL      0.374546
    123 H57         2.6820   -3.5260    2.4370 hc        1 MOL      0.072711
    124 H58         4.4450   -3.0890    2.3000 hc        1 MOL      0.072711
    125 H59         3.8290   -4.6240    3.1090 hc        1 MOL      0.072711
    126 N11         4.1140    0.1540    2.5110 n         1 MOL     -0.244885
    127 C39         5.0460    0.7670    1.6460 c3        1 MOL      0.000546
    128 C40         6.1720   -0.1420    1.1050 c         1 MOL      0.400624
    129 O19         6.1030   -1.3350    1.4770 o         1 MOL     -0.436762
    130 C41         5.6120    2.1090    2.2500 c3        1 MOL      0.175216
    131 C42         4.4970    3.0240    2.9280 c3        1 MOL     -0.298186
    132 O20         6.0530    2.8630    1.1960 oh        1 MOL     -0.617050
    133 H60         3.2310    0.0100    2.0410 hn        1 MOL      0.225709
    134 H61         4.4800    1.0640    0.7730 h1        1 MOL      0.110304
    135 H62         6.3510    1.8790    3.0280 h1        1 MOL      0.035125
    136 H63         6.3390    3.7030    1.5660 ho        1 MOL      0.420518
    137 H64         4.9720    3.9820    3.1050 hc        1 MOL      0.076834
    138 H65         3.6150    3.2370    2.3270 hc        1 MOL      0.076834
    139 H66         4.1370    2.5130    3.8220 hc        1 MOL      0.076834
    140 N12         7.1200    0.4180    0.3470 n         1 MOL     -0.365096
    141 C43         8.3740   -0.4010   -0.0920 c3        1 MOL     -0.056552
    142 C44         8.1260   -1.2830   -1.2510 c         1 MOL      0.470138
    143 O21         8.8620   -2.2730   -1.3930 o         1 MOL     -0.556631
    144 C45         9.6110    0.5050   -0.2770 c3        1 MOL      0.052286
    145 C46         9.8960    1.6060    0.7270 c3        1 MOL     -0.079212
    146 C47        11.2590    2.1450    0.3190 c3        1 MOL     -0.154313
    147 C48        11.1930    3.1350   -0.8870 c3        1 MOL      0.075159
    148 N13        12.5530    3.1390   -1.5780 n4        1 MOL     -0.401854
    149 H67         7.1080    1.4310    0.2650 hn        1 MOL      0.284473
    150 H68         8.7140   -1.1030    0.6570 h1        1 MOL      0.122669
    151 H69         9.5720    0.9500   -1.2740 hc        1 MOL      0.015987
    152 H70        10.5160   -0.0970   -0.1550 hc        1 MOL      0.015987
    153 H71        10.0350    1.1490    1.7030 hc        1 MOL      0.060184
    154 H72         9.0640    2.2980    0.6470 hc        1 MOL      0.060184
    155 H73        12.0170    1.4010    0.0800 hc        1 MOL      0.086561
    156 H74        11.5770    2.6950    1.1960 hc        1 MOL      0.086561
    157 H75        10.9360    4.1410   -0.5740 hx        1 MOL      0.077550
    158 H76        10.4840    2.8690   -1.6740 hx        1 MOL      0.077550
    159 H77        13.2150    3.4570   -0.8790 hn        1 MOL      0.295183
    160 H78        12.7960    2.2470   -1.9770 hn        1 MOL      0.295183
    161 H79        12.5800    3.7990   -2.3410 hn        1 MOL      0.295183
    162 N14         7.1470   -0.8970   -2.0780 n         1 MOL     -0.171967
    163 C49         6.8090   -1.7890   -3.1810 c3        1 MOL     -0.307181
    164 C50         7.6790   -1.4110   -4.3720 c         1 MOL      0.502453
    165 O22         7.6410   -0.1910   -4.7630 o         1 MOL     -0.521781
    166 C51         5.2960   -1.7780   -3.3720 c3        1 MOL      0.108925
    167 C52         4.4700   -2.4060   -2.2180 c3        1 MOL     -0.190175
    168 C53         2.9680   -2.2740   -2.3740 c         1 MOL      0.765072
    169 O23         2.3150   -3.0290   -3.0500 o         1 MOL     -0.788268
    170 O24         2.3670   -1.3270   -1.8220 o         1 MOL     -0.788268
    171 H80         6.6020   -0.0910   -1.7980 hn        1 MOL      0.210112
    172 H81         7.1490   -2.8000   -2.9540 h1        1 MOL      0.148308
    173 H82         5.0240   -2.1780   -4.3470 hc        1 MOL      0.037013
    174 H83         5.0040   -0.7370   -3.5050 hc        1 MOL      0.037013
    175 H84         4.8070   -1.9280   -1.2940 hc        1 MOL      0.043447
    176 H85         4.8740   -3.4150   -2.1680 hc        1 MOL      0.043447
    177 N15         8.4150   -2.4230   -4.9790 n         1 MOL     -0.336954
    178 C54         9.2320   -2.3040   -6.3230 c3        1 MOL     -0.231767
    179 H86        10.0230   -1.5650   -6.2020 h1        1 MOL      0.121465
    180 H87         9.6720   -3.2700   -6.5680 h1        1 MOL      0.121465
    181 H88         8.5650   -1.9940   -7.1270 h1        1 MOL      0.121465
    182 H89         8.4290   -3.3670   -4.5910 hn        1 MOL      0.274516
    183 Ca1        -0.1270   -2.0950   -2.0500 Ca        1 MOL      1.770331
    184 O25        -0.1610    0.3980   -2.6600 oh        1 MOL     -0.806071
    185 H90         0.1370    0.9790   -1.9590 ho        1 MOL      0.405550
    186 H91        -0.4920    0.9990   -3.3320 ho        1 MOL      0.405550
    187 O26        -0.9930   -4.6080   -2.2380 oh        1 MOL     -0.806071
    188 H92        -1.6670   -4.8400   -2.8730 ho        1 MOL      0.405550
    189 H93        -1.1890   -5.1470   -1.4800 ho        1 MOL      0.405550
    190 O27         0.7800   -3.6390   -0.1160 oh        1 MOL     -0.806071
    191 H94         0.4950   -3.2840    0.7200 ho        1 MOL      0.405550
    192 H95         0.7990   -4.5850    0.0120 ho        1 MOL      0.405550
    193 O28         0.3700   -2.1240   -4.7500 oh        1 MOL     -0.806071
    194 H96        -0.1350   -2.3410   -5.5290 ho        1 MOL      0.405550
    195 H97         1.2540   -2.4330   -4.9360 ho        1 MOL      0.405550
    196 O29        -2.2840   -1.8220   -3.6390 oh        1 MOL     -0.806071
    197 H98        -2.8090   -1.2290   -4.1840 ho        1 MOL      0.405550
    198 H99        -2.9260   -2.2800   -3.1000 ho        1 MOL      0.405550
@<TRIPOS>BOND
     1    1    2 1   
     2    1    4 1   
     3    1    5 1   
     4    1    6 1   
     5    2    3 2   
     6    2    7 1   
     7    7    8 1   
     8    7   15 1   
     9    8    9 1   
    10    8   11 1   
    11    8   16 1   
    12    9   10 2   
    13    9   19 1   
    14   11   12 1   
    15   11   17 1   
    16   11   18 1   
    17   12   13 1   
    18   12   14 1   
    19   19   20 1   
    20   19   28 1   
    21   20   21 1   
    22   20   23 1   
    23   20   29 1   
    24   21   22 2   
    25   21   41 1   
    26   23   24 1   
    27   23   30 1   
    28   23   31 1   
    29   24   25 1   
    30   24   32 1   
    31   24   33 1   
    32   25   26 1   
    33   25   34 1   
    34   25   35 1   
    35   26   27 1   
    36   26   36 1   
    37   26   37 1   
    38   27   38 1   
    39   27   39 1   
    40   27   40 1   
    41   41   42 1   
    42   41   49 1   
    43   42   43 1   
    44   42   45 1   
    45   42   50 1   
    46   43   44 2   
    47   43   53 1   
    48   45   46 1   
    49   45   51 1   
    50   45   52 1   
    51   46   47 1   
    52   46   48 1   
    53   53   54 1   
    54   53   57 1   
    55   54   55 1   
    56   54   58 1   
    57   54   59 1   
    58   55   56 2   
    59   55   60 1   
    60   60   61 1   
    61   60   68 1   
    62   61   62 1   
    63   61   64 1   
    64   61   69 1   
    65   62   63 2   
    66   62   72 1   
    67   64   65 1   
    68   64   70 1   
    69   64   71 1   
    70   65   66 1   
    71   65   67 1   
    72   72   73 1   
    73   72   76 1   
    74   73   74 1   
    75   73   77 1   
    76   73   78 1   
    77   74   75 2   
    78   74   79 1   
    79   79   80 1   
    80   79   86 1   
    81   80   81 1   
    82   80   83 1   
    83   80   87 1   
    84   81   82 2   
    85   81   93 1   
    86   83   84 1   
    87   83   85 1   
    88   83   88 1   
    89   84   90 1   
    90   84   91 1   
    91   84   92 1   
    92   85   89 1   
    93   93   94 1   
    94   93  101 1   
    95   94   95 1   
    96   94   97 1   
    97   94  102 1   
    98   95   96 2   
    99   95  112 1   
   100   97   98 1   
   101   97   99 1   
   102   97  103 1   
   103   98  100 1   
   104   98  104 1   
   105   98  105 1   
   106   99  106 1   
   107   99  107 1   
   108   99  108 1   
   109  100  109 1   
   110  100  110 1   
   111  100  111 1   
   112  112  113 1   
   113  112  119 1   
   114  113  114 1   
   115  113  116 1   
   116  113  120 1   
   117  114  115 2   
   118  114  126 1   
   119  116  117 1   
   120  116  118 1   
   121  116  121 1   
   122  117  123 1   
   123  117  124 1   
   124  117  125 1   
   125  118  122 1   
   126  126  127 1   
   127  126  133 1   
   128  127  128 1   
   129  127  130 1   
   130  127  134 1   
   131  128  129 2   
   132  128  140 1   
   133  130  131 1   
   134  130  132 1   
   135  130  135 1   
   136  131  137 1   
   137  131  138 1   
   138  131  139 1   
   139  132  136 1   
   140  140  141 1   
   141  140  149 1   
   142  141  142 1   
   143  141  144 1   
   144  141  150 1   
   145  142  143 2   
   146  142  162 1   
   147  144  145 1   
   148  144  151 1   
   149  144  152 1   
   150  145  146 1   
   151  145  153 1   
   152  145  154 1   
   153  146  147 1   
   154  146  155 1   
   155  146  156 1   
   156  147  148 1   
   157  147  157 1   
   158  147  158 1   
   159  148  159 1   
   160  148  160 1   
   161  148  161 1   
   162  162  163 1   
   163  162  171 1   
   164  163  164 1   
   165  163  166 1   
   166  163  172 1   
   167  164  165 2   
   168  164  177 1   
   169  166  167 1   
   170  166  173 1   
   171  166  174 1   
   172  167  168 1   
   173  167  175 1   
   174  167  176 1   
   175  168  169 1   
   176  168  170 1   
   177  177  178 1   
   178  177  182 1   
   179  178  179 1   
   180  178  180 1   
   181  178  181 1   
   182  184  185 1   
   183  184  186 1   
   184  187  188 1   
   185  187  189 1   
   186  190  191 1   
   187  190  192 1   
   188  193  194 1   
   189  193  195 1   
   190  196  197 1   
   191  196  198 1   
@<TRIPOS>SUBSTRUCTURE
     1 MOL         1 TEMP              0 ****  ****    0 ROOT
