@<TRIPOS>MOLECULE
MOL
  181   177     1     0     0
SMALL
resp


@<TRIPOS>ATOM
      1 C1        -10.1590    6.8120   -1.4500 c3        1 MOL     -0.363083
      2 C2         -9.0620    5.7640   -1.6770 c         1 MOL      0.764170
      3 O1         -8.2330    6.0100   -2.5260 o         1 MOL     -0.626306
      4 H1        -10.4600    7.2350   -2.4070 hc        1 MOL      0.085888
      5 H2        -11.0200    6.3400   -0.9750 hc        1 MOL      0.085888
      6 H3         -9.7780    7.6040   -0.8060 hc        1 MOL      0.085888
      7 N1         -8.9460    4.5590   -1.1660 n         1 MOL     -0.747396
      8 C3         -9.6330    3.9730   -0.0230 c3        1 MOL      0.495135
      9 C4        -10.2260    2.6050   -0.3150 c         1 MOL      0.372788
     10 O2        -10.9620    2.1230    0.5470 o         1 MOL     -0.487505
     11 C5         -8.7330    3.9120    1.2230 c3        1 MOL     -0.313621
     12 C6         -7.4030    3.0890    1.0690 c         1 MOL      0.849824
     13 O3         -7.0470    2.3200    2.0110 o         1 MOL     -0.806223
     14 O4         -6.6470    3.1160    0.0940 o         1 MOL     -0.806223
     15 H4         -8.1390    4.1150   -1.5790 hn        1 MOL      0.419978
     16 H5        -10.5300    4.5140    0.2660 h1        1 MOL     -0.037799
     17 H6         -9.4010    3.4790    1.9710 hc        1 MOL      0.044855
     18 H7         -8.4810    4.9470    1.4510 hc        1 MOL      0.044855
     19 N2         -9.9790    2.0560   -1.5290 n         1 MOL     -0.423983
     20 C7        -10.6270    0.7980   -1.8370 c3        1 MOL      0.081571
     21 C8         -9.9410   -0.4080   -1.2030 c         1 MOL      0.543045
     22 O5        -10.5120   -1.2190   -0.4560 o         1 MOL     -0.577213
     23 C9        -10.6860    0.8130   -3.3750 c3        1 MOL     -0.099966
     24 H8         -9.5750    2.5560   -2.3100 hn        1 MOL      0.260127
     25 H9        -11.6990    0.7800   -1.6220 h1        1 MOL      0.041188
     26 H10        -9.7010    0.5160   -3.7380 hc        1 MOL      0.026014
     27 H11       -11.3480    0.0280   -3.7240 hc        1 MOL      0.026014
     28 H12       -10.9880    1.7290   -3.8770 hc        1 MOL      0.026014
     29 N3         -8.6360   -0.4610   -1.4200 n         1 MOL     -0.267594
     30 C10        -7.7550   -1.5330   -0.9220 c3        1 MOL     -0.099402
     31 C11        -7.2830   -1.5280    0.5230 c         1 MOL      0.694262
     32 O6         -7.1700   -0.4520    1.1450 o         1 MOL     -0.539632
     33 C12        -6.5020   -1.5920   -1.8530 c3        1 MOL     -0.255286
     34 C13        -5.7030   -0.2690   -1.8890 c         1 MOL      0.677558
     35 O7         -6.0690    0.6500   -2.6280 o         1 MOL     -0.655405
     36 O8         -4.8200   -0.1390   -1.0250 o         1 MOL     -0.655405
     37 H13        -8.1280    0.3310   -1.7950 hn        1 MOL      0.254221
     38 H14        -8.2250   -2.5140   -1.0110 h1        1 MOL      0.047838
     39 H15        -6.9180   -1.8090   -2.8390 hc        1 MOL      0.065914
     40 H16        -5.8720   -2.4280   -1.5750 hc        1 MOL      0.065914
     41 N4         -6.9180   -2.7320    0.9670 n         1 MOL     -0.497537
     42 C14        -6.2620   -2.9140    2.2610 c3        1 MOL     -0.027831
     43 C15        -4.7970   -2.5390    2.3130 c         1 MOL      0.955405
     44 O9         -4.4600   -1.4230    1.9350 o         1 MOL     -0.872703
     45 H17        -6.9960   -3.5730    0.4060 hn        1 MOL      0.319761
     46 H18        -6.4850   -3.8850    2.7110 h1        1 MOL      0.047834
     47 H19        -6.6980   -2.2220    2.9760 h1        1 MOL      0.047834
     48 N5         -3.8740   -3.3640    2.8370 n         1 MOL     -0.771858
     49 C16        -2.4050   -3.0560    2.9140 c3        1 MOL     -0.000849
     50 C17        -1.7960   -3.7300    1.6390 c         1 MOL      0.775463
     51 O10        -2.0390   -4.8920    1.2640 o         1 MOL     -0.595117
     52 C18        -1.7080   -3.5010    4.1470 c3        1 MOL     -0.411370
     53 C19        -2.3720   -2.7920    5.2820 c         1 MOL      0.879203
     54 N6         -2.1390   -3.3950    6.4340 n         1 MOL     -0.856830
     55 O11        -3.0020   -1.7140    5.0890 o         1 MOL     -0.633780
     56 H20        -4.0840   -4.2360    3.3190 hn        1 MOL      0.347692
     57 H21        -2.2620   -1.9800    2.8740 h1        1 MOL      0.215271
     58 H22        -0.6830   -3.1280    4.1630 hc        1 MOL      0.124588
     59 H23        -1.7520   -4.5850    4.2150 hc        1 MOL      0.124588
     60 H24        -1.4240   -4.1100    6.4250 hn        1 MOL      0.380825
     61 H25        -2.5410   -3.0920    7.3150 hn        1 MOL      0.380825
     62 N7         -0.9500   -2.9640    0.9720 n         1 MOL     -0.639900
     63 C20        -0.1810   -3.3690   -0.1690 c3        1 MOL      0.526338
     64 C21        -0.9440   -3.6210   -1.4640 c         1 MOL      0.306993
     65 O12        -2.0800   -3.1690   -1.5780 o         1 MOL     -0.525881
     66 H26        -0.6930   -2.0820    1.4070 hn        1 MOL      0.276573
     67 H27         0.2840   -4.2820    0.2180 h1        1 MOL     -0.069697
     68 H28         0.6330   -2.6490   -0.3090 h1        1 MOL     -0.069697
     69 N8         -0.3680   -4.3340   -2.3860 n         1 MOL     -0.176977
     70 C22         0.9170   -4.9990   -2.2600 c3        1 MOL     -0.407082
     71 C23         2.1670   -4.0800   -2.3600 c         1 MOL      0.525548
     72 O13         3.1620   -4.3840   -1.7320 o         1 MOL     -0.555751
     73 C24         1.0800   -6.1570   -3.2810 c3        1 MOL      0.385856
     74 C25         0.1380   -7.3460   -2.9830 c3        1 MOL     -0.527423
     75 O14         0.6180   -5.7060   -4.5550 oh        1 MOL     -0.624283
     76 H29        -0.9390   -4.6290   -3.1650 hn        1 MOL      0.262727
     77 H30         0.9760   -5.4800   -1.2850 h1        1 MOL      0.169376
     78 H31         2.1020   -6.5330   -3.3740 h1        1 MOL      0.038792
     79 H32         0.5020   -6.3930   -5.2080 ho        1 MOL      0.398880
     80 H33        -0.8630   -6.9310   -3.1480 hc        1 MOL      0.137313
     81 H34         0.2110   -8.2360   -3.6090 hc        1 MOL      0.137313
     82 H35         0.2280   -7.6370   -1.9420 hc        1 MOL      0.137313
     83 N9          2.0360   -2.9640   -3.0680 n         1 MOL     -0.091395
     84 C26         3.0290   -1.8130   -2.9260 c3        1 MOL      0.020803
     85 C27         2.4520   -0.7190   -2.0010 c         1 MOL      0.669113
     86 O15         1.4020   -0.1520   -2.2810 o         1 MOL     -0.607958
     87 C28         3.3520   -1.3840   -4.3270 c3        1 MOL     -0.016198
     88 C29         3.8470   -2.5690   -5.2010 c3        1 MOL     -0.039555
     89 C30         4.3230   -0.1680   -4.3940 c3        1 MOL     -0.319864
     90 C31         5.2060   -3.1630   -4.7240 c3        1 MOL     -0.122105
     91 H36         1.1930   -2.8010   -3.6010 hn        1 MOL      0.159614
     92 H37         3.9500   -2.1970   -2.4740 h1        1 MOL      0.055208
     93 H38         2.3840   -1.0460   -4.7060 hc        1 MOL     -0.000645
     94 H39         4.0060   -2.3090   -6.2450 hc        1 MOL      0.000574
     95 H40         3.0400   -3.3020   -5.1520 hc        1 MOL      0.000574
     96 H41         5.0660   -0.3330   -3.6080 hc        1 MOL      0.127868
     97 H42         4.8030   -0.1210   -5.3660 hc        1 MOL      0.127868
     98 H43         3.8840    0.7610   -4.0210 hc        1 MOL      0.127868
     99 H44         5.1450   -3.4280   -3.6730 hc        1 MOL      0.029498
    100 H45         5.4200   -4.1180   -5.1970 hc        1 MOL      0.029498
    101 H46         5.9370   -2.3690   -4.9140 hc        1 MOL      0.029498
    102 N10         3.1200   -0.3830   -0.8570 n         1 MOL     -0.647514
    103 C32         4.1960   -1.0880   -0.1050 c3        1 MOL      0.401935
    104 C33         5.2220   -0.1430    0.4800 c         1 MOL      0.215881
    105 O16         5.0100    1.0380    0.4980 o         1 MOL     -0.466053
    106 C34         3.4730   -1.8800    0.9660 c3        1 MOL     -0.103029
    107 C35         2.3210   -1.2860    1.7860 c         1 MOL      0.844627
    108 O17         1.8520   -0.1780    1.5110 o         1 MOL     -0.747285
    109 O18         1.8590   -1.9430    2.6890 o         1 MOL     -0.747285
    110 H47         2.5340    0.2310   -0.2990 hn        1 MOL      0.345714
    111 H48         4.7200   -1.8730   -0.6560 h1        1 MOL     -0.003855
    112 H49         4.1430   -2.4780    1.5840 hc        1 MOL     -0.029475
    113 H50         3.0340   -2.6780    0.3770 hc        1 MOL     -0.029475
    114 N11         6.3380   -0.6680    0.9910 n         1 MOL     -0.257863
    115 C36         7.5400    0.1040    1.5480 c3        1 MOL      0.623335
    116 C37         8.7550   -0.0200    0.5800 c         1 MOL      0.028735
    117 O19         8.8830   -1.0480   -0.0960 o         1 MOL     -0.453285
    118 C38         7.9260   -0.4820    2.9010 c3        1 MOL     -0.206661
    119 C39         6.7500   -0.4020    3.8900 ca        1 MOL      0.119114
    120 C40         5.9440   -1.5500    4.0770 ca        1 MOL     -0.159899
    121 C41         6.5140    0.7310    4.6730 ca        1 MOL     -0.159899
    122 C42         4.8140   -1.5010    4.9780 ca        1 MOL     -0.189135
    123 C43         5.4230    0.8180    5.5450 ca        1 MOL     -0.189135
    124 C44         4.5170   -0.2630    5.6270 ca        1 MOL     -0.035771
    125 H51         6.5370   -1.6210    0.7290 hn        1 MOL      0.169273
    126 H52         7.3390    1.1740    1.6500 h1        1 MOL     -0.020978
    127 H53         8.6330    0.2140    3.3530 hc        1 MOL      0.024116
    128 H54         8.2620   -1.5170    2.8930 hc        1 MOL      0.024116
    129 H55         6.0610   -2.4750    3.5450 ha        1 MOL      0.114721
    130 H56         7.1490    1.6020    4.5370 ha        1 MOL      0.114721
    131 H57         4.1160   -2.3210    5.0750 ha        1 MOL      0.124947
    132 H58         5.2840    1.7140    6.1370 ha        1 MOL      0.124947
    133 H59         3.6170   -0.2410    6.2200 ha        1 MOL      0.091810
    134 N12         9.7570    0.9260    0.5820 n         1 MOL      0.024250
    135 C45         9.7980    2.2600    1.2820 c3        1 MOL     -0.017346
    136 C46         8.6290    3.1580    0.8330 c         1 MOL      0.528861
    137 O20         7.8820    3.6540    1.6450 o         1 MOL     -0.583180
    138 C47        11.1740    2.8440    0.9240 c3        1 MOL     -0.111838
    139 C48        12.0370    1.6640    0.4600 c3        1 MOL     -0.114244
    140 C49        10.9910    0.7160   -0.1380 c3        1 MOL      0.002126
    141 H60         9.7380    2.0470    2.3470 h1        1 MOL      0.050076
    142 H61        11.0480    3.5440    0.0970 hc        1 MOL      0.060100
    143 H62        11.5890    3.3940    1.7690 hc        1 MOL      0.060100
    144 H63        12.8580    1.8710   -0.2260 hc        1 MOL      0.040220
    145 H64        12.4490    1.1650    1.3350 hc        1 MOL      0.040220
    146 H65        10.8110    1.0710   -1.1620 h1        1 MOL      0.064867
    147 H66        11.3460   -0.3110   -0.2000 h1        1 MOL      0.064867
    148 N13         8.2140    3.1950   -0.4570 n         1 MOL     -0.430055
    149 C50         7.0410    3.8630   -0.9860 c3        1 MOL      0.125997
    150 C51         7.2750    5.4320   -0.7580 c         1 MOL      0.431229
    151 O21         8.0780    5.9570   -1.4950 o         1 MOL     -0.595740
    152 C52         6.9570    3.5330   -2.4700 c3        1 MOL      0.050257
    153 C53         6.6320    2.0040   -2.7370 c3        1 MOL     -0.191690
    154 C54         6.9720    1.5800   -4.1530 c         1 MOL      0.817854
    155 O22         6.2780    2.0590   -5.0870 o         1 MOL     -0.765815
    156 O23         7.9160    0.8340   -4.2870 o         1 MOL     -0.765815
    157 H67         8.7590    2.7960   -1.2070 hn        1 MOL      0.301949
    158 H68         6.0770    3.6450   -0.5220 h1        1 MOL      0.081429
    159 H69         7.8450    3.8640   -3.0070 hc        1 MOL      0.000623
    160 H70         6.1590    4.1220   -2.9330 hc        1 MOL      0.000623
    161 H71         5.5910    1.8230   -2.4700 hc        1 MOL     -0.017256
    162 H72         7.2170    1.3470   -2.1000 hc        1 MOL     -0.017256
    163 N14         6.6950    6.1820    0.1180 n         1 MOL     -0.264238
    164 C55         5.6370    5.7470    1.1170 c3        1 MOL     -0.252681
    165 H73         6.0720    5.0380    1.8210 h1        1 MOL      0.110476
    166 H74         5.2690    6.6180    1.6600 h1        1 MOL      0.110476
    167 H75         4.8110    5.2720    0.5890 h1        1 MOL      0.110476
    168 H76         6.9180    7.1640    0.1360 hn        1 MOL      0.249418
    169 Ca1        -4.8260    1.1210    1.1970 Ca        1 MOL      1.699888
    170 O24        -3.7020    0.5330    3.6740 oh        1 MOL     -0.743471
    171 H77        -3.4560   -0.3900    3.7730 ho        1 MOL      0.379793
    172 H78        -4.4940    0.6380    4.2000 ho        1 MOL      0.379793
    173 O25        -3.6220    2.8030   -1.0070 oh        1 MOL     -0.743471
    174 H79        -3.6130    2.2940   -1.8220 ho        1 MOL      0.379793
    175 H80        -2.7860    3.2710   -1.0000 ho        1 MOL      0.379793
    176 O26        -2.2750    1.2330    1.0610 oh        1 MOL     -0.743471
    177 H81        -1.6620    0.7810    1.6400 ho        1 MOL      0.379793
    178 H82        -2.1840    0.7920    0.2240 ho        1 MOL      0.379793
    179 O27        -4.1450    3.5420    2.1360 oh        1 MOL     -0.743471
    180 H83        -3.6500    4.2860    1.7970 ho        1 MOL      0.379793
    181 H84        -4.5840    3.8890    2.9090 ho        1 MOL      0.379793
@<TRIPOS>BOND
     1    1    2 1   
     2    1    4 1   
     3    1    5 1   
     4    1    6 1   
     5    2    3 2   
     6    2    7 1   
     7    7    8 1   
     8    7   15 1   
     9    8    9 1   
    10    8   11 1   
    11    8   16 1   
    12    9   10 2   
    13    9   19 1   
    14   11   12 1   
    15   11   17 1   
    16   11   18 1   
    17   12   13 1   
    18   12   14 1   
    19   19   20 1   
    20   19   24 1   
    21   20   21 1   
    22   20   23 1   
    23   20   25 1   
    24   21   22 2   
    25   21   29 1   
    26   23   26 1   
    27   23   27 1   
    28   23   28 1   
    29   29   30 1   
    30   29   37 1   
    31   30   31 1   
    32   30   33 1   
    33   30   38 1   
    34   31   32 2   
    35   31   41 1   
    36   33   34 1   
    37   33   39 1   
    38   33   40 1   
    39   34   35 1   
    40   34   36 1   
    41   41   42 1   
    42   41   45 1   
    43   42   43 1   
    44   42   46 1   
    45   42   47 1   
    46   43   44 2   
    47   43   48 1   
    48   48   49 1   
    49   48   56 1   
    50   49   50 1   
    51   49   52 1   
    52   49   57 1   
    53   50   51 2   
    54   50   62 1   
    55   52   53 1   
    56   52   58 1   
    57   52   59 1   
    58   53   54 1   
    59   53   55 2   
    60   54   60 1   
    61   54   61 1   
    62   62   63 1   
    63   62   66 1   
    64   63   64 1   
    65   63   67 1   
    66   63   68 1   
    67   64   65 2   
    68   64   69 1   
    69   69   70 1   
    70   69   76 1   
    71   70   71 1   
    72   70   73 1   
    73   70   77 1   
    74   71   72 2   
    75   71   83 1   
    76   73   74 1   
    77   73   75 1   
    78   73   78 1   
    79   74   80 1   
    80   74   81 1   
    81   74   82 1   
    82   75   79 1   
    83   83   84 1   
    84   83   91 1   
    85   84   85 1   
    86   84   87 1   
    87   84   92 1   
    88   85   86 2   
    89   85  102 1   
    90   87   88 1   
    91   87   89 1   
    92   87   93 1   
    93   88   90 1   
    94   88   94 1   
    95   88   95 1   
    96   89   96 1   
    97   89   97 1   
    98   89   98 1   
    99   90   99 1   
   100   90  100 1   
   101   90  101 1   
   102  102  103 1   
   103  102  110 1   
   104  103  104 1   
   105  103  106 1   
   106  103  111 1   
   107  104  105 2   
   108  104  114 1   
   109  106  107 1   
   110  106  112 1   
   111  106  113 1   
   112  107  108 1   
   113  107  109 1   
   114  114  115 1   
   115  114  125 1   
   116  115  116 1   
   117  115  118 1   
   118  115  126 1   
   119  116  117 2   
   120  116  134 1   
   121  118  119 1   
   122  118  127 1   
   123  118  128 1   
   124  119  120 ar  
   125  119  121 ar  
   126  120  122 ar  
   127  120  129 1   
   128  121  123 ar  
   129  121  130 1   
   130  122  124 ar  
   131  122  131 1   
   132  123  124 ar  
   133  123  132 1   
   134  124  133 1   
   135  134  135 1   
   136  134  140 1   
   137  135  136 1   
   138  135  138 1   
   139  135  141 1   
   140  136  137 2   
   141  136  148 1   
   142  138  139 1   
   143  138  142 1   
   144  138  143 1   
   145  139  140 1   
   146  139  144 1   
   147  139  145 1   
   148  140  146 1   
   149  140  147 1   
   150  148  149 1   
   151  148  157 1   
   152  149  150 1   
   153  149  152 1   
   154  149  158 1   
   155  150  151 2   
   156  150  163 1   
   157  152  153 1   
   158  152  159 1   
   159  152  160 1   
   160  153  154 1   
   161  153  161 1   
   162  153  162 1   
   163  154  155 1   
   164  154  156 1   
   165  163  164 1   
   166  163  168 1   
   167  164  165 1   
   168  164  166 1   
   169  164  167 1   
   170  170  171 1   
   171  170  172 1   
   172  173  174 1   
   173  173  175 1   
   174  176  177 1   
   175  176  178 1   
   176  179  180 1   
   177  179  181 1   
@<TRIPOS>SUBSTRUCTURE
     1 MOL         1 TEMP              0 ****  ****    0 ROOT
