@<TRIPOS>MOLECULE
MOL
  198   191     1     0     0
SMALL
resp


@<TRIPOS>ATOM
      1 C1         -2.0520    3.5190    3.7310 c3        1 MOL     -0.262935
      2 C2         -3.4740    3.0000    3.4530 c         1 MOL      0.662511
      3 O1         -3.9590    2.1040    4.1690 o         1 MOL     -0.604409
      4 H1         -2.1100    4.4870    4.2280 hc        1 MOL      0.074211
      5 H2         -1.5260    2.8130    4.3740 hc        1 MOL      0.074211
      6 H3         -1.5130    3.6260    2.7900 hc        1 MOL      0.074211
      7 N1         -4.2370    3.7250    2.5740 n         1 MOL     -0.442255
      8 C3         -5.7480    3.5430    2.4010 c3        1 MOL     -0.086044
      9 C4         -6.1700    2.5040    1.3880 c         1 MOL      0.523057
     10 O2         -5.5900    2.4690    0.3170 o         1 MOL     -0.672227
     11 C5         -6.2050    4.9190    2.1150 c3        1 MOL     -0.242005
     12 C6         -5.5150    5.7210    1.0480 c         1 MOL      0.782035
     13 O3         -4.8250    6.6890    1.3960 o         1 MOL     -0.709172
     14 O4         -5.7500    5.4760   -0.1750 o         1 MOL     -0.709172
     15 H4         -3.7370    4.2840    1.8880 hn        1 MOL      0.270896
     16 H5         -6.2020    3.2780    3.3650 h1        1 MOL      0.125243
     17 H6         -6.1550    5.4240    3.0850 hc        1 MOL      0.083201
     18 H7         -7.2570    4.8610    1.8570 hc        1 MOL      0.083201
     19 N2         -7.1810    1.6700    1.6670 n         1 MOL     -0.188458
     20 C7         -7.5920    0.4700    0.9150 c3        1 MOL      0.106773
     21 C8         -8.8050    0.6660    0.0820 c         1 MOL      0.130419
     22 O5         -9.7420    1.2420    0.6500 o         1 MOL     -0.485126
     23 C9         -7.8350   -0.6470    1.9410 c3        1 MOL     -0.223966
     24 C10        -6.6790   -0.9220    2.9360 c3        1 MOL     -0.140023
     25 C11        -6.8670   -2.2690    3.6050 c3        1 MOL     -0.029179
     26 C12        -5.9400   -2.4940    4.7770 c3        1 MOL      0.193123
     27 N3         -6.4990   -3.6990    5.5280 n4        1 MOL     -0.430636
     28 H8         -7.5560    1.7220    2.6070 hn        1 MOL      0.186389
     29 H9         -6.8380    0.1140    0.2180 h1        1 MOL      0.067369
     30 H10        -8.0790   -1.5550    1.4040 hc        1 MOL      0.113556
     31 H11        -8.7300   -0.4360    2.5190 hc        1 MOL      0.113556
     32 H12        -6.5830   -0.1520    3.7160 hc        1 MOL      0.081047
     33 H13        -5.7000   -0.8150    2.4630 hc        1 MOL      0.081047
     34 H14        -6.6860   -3.1090    2.9350 hc        1 MOL      0.025035
     35 H15        -7.9140   -2.2790    3.8890 hc        1 MOL      0.025035
     36 H16        -5.9070   -1.6240    5.4350 hx        1 MOL      0.045323
     37 H17        -4.9340   -2.6790    4.3970 hx        1 MOL      0.045323
     38 H18        -7.4500   -3.4200    5.7550 hn        1 MOL      0.310984
     39 H19        -6.5580   -4.5630    4.9990 hn        1 MOL      0.310984
     40 H20        -5.9900   -3.8770    6.3920 hn        1 MOL      0.310984
     41 N4         -8.8660    0.1220   -1.1340 n         1 MOL     -0.084916
     42 C13        -9.9740    0.3770   -2.0020 c3        1 MOL      0.296601
     43 C14       -10.0360   -0.7320   -3.1210 c         1 MOL      0.304953
     44 O6         -9.7800   -0.5280   -4.3420 o         1 MOL     -0.500212
     45 C15        -9.9090    1.8190   -2.5350 c3        1 MOL     -0.301916
     46 C16        -8.5290    2.4660   -2.5470 c         1 MOL      0.892035
     47 O7         -8.1360    3.2590   -1.6190 o         1 MOL     -0.773202
     48 O8         -7.7770    2.1820   -3.5110 o         1 MOL     -0.773202
     49 H21        -8.0170   -0.2340   -1.5390 hn        1 MOL      0.136188
     50 H22       -10.9580    0.3430   -1.5300 h1        1 MOL      0.032640
     51 H23       -10.4670    2.5270   -1.9210 hc        1 MOL      0.059310
     52 H24       -10.4690    1.8990   -3.4580 hc        1 MOL      0.059310
     53 N5        -10.4140   -1.9530   -2.8710 n         1 MOL     -0.259220
     54 C17       -10.7470   -2.5620   -1.5590 c3        1 MOL     -0.359496
     55 C18        -9.5860   -3.3450   -0.9240 c         1 MOL      0.584565
     56 O9         -9.7940   -4.0580    0.1250 o         1 MOL     -0.598179
     57 H25       -10.6540   -2.4610   -3.7060 hn        1 MOL      0.296061
     58 H26       -11.5070   -3.3070   -1.7690 h1        1 MOL      0.150475
     59 H27       -11.1740   -1.7740   -0.9400 h1        1 MOL      0.150475
     60 N6         -8.3960   -3.1930   -1.4970 n         1 MOL     -0.303438
     61 C19        -7.1220   -3.7090   -1.0710 c3        1 MOL      0.242587
     62 C20        -6.0130   -2.6180   -1.2620 c         1 MOL      0.198558
     63 O10        -6.3910   -1.5530   -1.7990 o         1 MOL     -0.385658
     64 C21        -6.7950   -5.0410   -1.6860 c3        1 MOL     -0.207606
     65 C22        -7.1700   -5.1810   -3.1450 c         1 MOL      0.678210
     66 O11        -7.1310   -4.2530   -3.9620 o         1 MOL     -0.662450
     67 O12        -7.4980   -6.3820   -3.4580 o         1 MOL     -0.662450
     68 H28        -8.4130   -2.5380   -2.2560 hn        1 MOL      0.228975
     69 H29        -7.1750   -3.9350   -0.0080 h1        1 MOL     -0.013596
     70 H30        -7.2470   -5.8050   -1.0510 hc        1 MOL      0.034346
     71 H31        -5.7240   -5.1850   -1.6830 hc        1 MOL      0.034346
     72 N7         -4.7590   -2.8970   -0.8850 n         1 MOL     -0.024049
     73 C23        -3.6320   -1.9420   -1.0300 c3        1 MOL     -0.456687
     74 C24        -2.3530   -2.4720   -0.3210 c         1 MOL      0.707737
     75 O13        -1.9400   -3.5950   -0.6540 o         1 MOL     -0.506541
     76 H32        -4.6320   -3.7770   -0.4100 hn        1 MOL      0.189973
     77 H33        -3.9490   -1.0600   -0.4700 h1        1 MOL      0.169479
     78 H34        -3.3850   -1.8600   -2.0880 h1        1 MOL      0.169479
     79 N8         -1.7790   -1.6230    0.5900 n         1 MOL     -0.563713
     80 C25        -0.8480   -2.0620    1.6000 c3        1 MOL      0.087507
     81 C26         0.2140   -1.0540    2.0030 c         1 MOL      0.554253
     82 O14        -0.0420    0.1150    1.6790 o         1 MOL     -0.501077
     83 C27        -1.6930   -2.5260    2.8230 c3        1 MOL      0.086989
     84 C28        -2.6500   -1.5150    3.3260 c3        1 MOL     -0.153267
     85 O15        -2.4720   -3.6270    2.5250 oh        1 MOL     -0.572261
     86 H35        -2.3190   -0.7830    0.7210 hn        1 MOL      0.311762
     87 H36        -0.3440   -2.9650    1.2390 h1        1 MOL      0.059150
     88 H37        -1.0440   -2.8500    3.6510 h1        1 MOL      0.041757
     89 H38        -2.2510   -4.2390    3.2240 ho        1 MOL      0.400717
     90 H39        -3.3960   -1.2120    2.5850 hc        1 MOL      0.037709
     91 H40        -3.2710   -1.7830    4.1870 hc        1 MOL      0.037709
     92 H41        -2.1130   -0.6080    3.5950 hc        1 MOL      0.037709
     93 N9          1.3130   -1.4930    2.6130 n         1 MOL     -0.492125
     94 C29         2.2360   -0.5060    3.2150 c3        1 MOL     -0.000723
     95 C30         3.4220   -0.3780    2.2260 c         1 MOL      0.568225
     96 O16         3.8940    0.7190    2.0480 o         1 MOL     -0.528386
     97 C31         2.7360   -0.9150    4.6860 c3        1 MOL      0.210292
     98 C32         1.6290   -1.3650    5.6620 c3        1 MOL     -0.089155
     99 C33         3.6930    0.1250    5.2940 c3        1 MOL     -0.446361
    100 C34         0.3650   -0.5210    5.7960 c3        1 MOL     -0.016228
    101 H42         1.5010   -2.4760    2.7160 hn        1 MOL      0.324644
    102 H43         1.8040    0.4900    3.3540 h1        1 MOL      0.087393
    103 H44         3.2710   -1.8510    4.5130 hc        1 MOL     -0.032145
    104 H45         1.9870   -1.5350    6.6840 hc        1 MOL      0.010899
    105 H46         1.3640   -2.3270    5.2210 hc        1 MOL      0.010899
    106 H47         4.5540    0.3890    4.6820 hc        1 MOL      0.135245
    107 H48         2.9970    0.9430    5.4890 hc        1 MOL      0.135245
    108 H49         4.0120   -0.2440    6.2750 hc        1 MOL      0.135245
    109 H50        -0.0530   -0.3820    4.7990 hc        1 MOL      0.015076
    110 H51        -0.4320   -0.9170    6.4160 hc        1 MOL      0.015076
    111 H52         0.6650    0.4460    6.1840 hc        1 MOL      0.015076
    112 N10         3.8210   -1.4480    1.5270 n         1 MOL     -0.471885
    113 C35         4.8520   -1.3510    0.4740 c3        1 MOL      0.080274
    114 C36         5.9500   -2.5060    0.6320 c         1 MOL      0.589900
    115 O17         5.8020   -3.3640    1.4970 o         1 MOL     -0.518542
    116 C37         4.1280   -1.4650   -0.8800 c3        1 MOL      0.301513
    117 C38         3.2300   -0.2900   -1.1170 c3        1 MOL     -0.252320
    118 O18         4.9780   -1.6080   -1.9560 oh        1 MOL     -0.644829
    119 H53         3.3220   -2.3030    1.7160 hn        1 MOL      0.242815
    120 H54         5.2910   -0.3470    0.5110 h1        1 MOL      0.085886
    121 H55         3.4320   -2.2870   -0.7450 h1        1 MOL     -0.025717
    122 H56         4.4960   -1.8800   -2.7390 ho        1 MOL      0.430612
    123 H57         3.7780    0.6520   -1.2040 hc        1 MOL      0.072977
    124 H58         2.7960   -0.4780   -2.0980 hc        1 MOL      0.072977
    125 H59         2.4980   -0.1520   -0.3300 hc        1 MOL      0.072977
    126 N11         7.1030   -2.3710   -0.0490 n         1 MOL     -0.606274
    127 C39         8.1670   -3.3210   -0.0920 c3        1 MOL     -0.052668
    128 C40         9.5930   -2.6980   -0.0510 c         1 MOL      0.712486
    129 O19        10.4370   -3.1260    0.7530 o         1 MOL     -0.565357
    130 C41         8.1440   -4.3770   -1.2790 c3        1 MOL      0.285442
    131 C42         9.2750   -5.3790   -1.2150 c3        1 MOL     -0.140937
    132 O20         8.1480   -3.7260   -2.5120 oh        1 MOL     -0.608568
    133 H60         7.0740   -1.6620   -0.7760 hn        1 MOL      0.311245
    134 H61         8.0450   -3.8610    0.8480 h1        1 MOL      0.112226
    135 H62         7.2870   -5.0370   -1.2250 h1        1 MOL      0.022751
    136 H63         7.3140   -3.9120   -2.9630 ho        1 MOL      0.393481
    137 H64         9.7530   -5.2570   -0.2520 hc        1 MOL      0.034270
    138 H65         8.9540   -6.4140   -1.3130 hc        1 MOL      0.034270
    139 H66        10.0160   -5.1290   -1.9760 hc        1 MOL      0.034270
    140 N12         9.8560   -1.7080   -0.9140 n         1 MOL     -0.492170
    141 C43        11.0940   -0.8810   -0.7330 c3        1 MOL     -0.064150
    142 C44        10.7820    0.4280   -1.3220 c         1 MOL      0.404565
    143 O21        10.3330    0.5710   -2.5130 o         1 MOL     -0.499413
    144 C45        12.3220   -1.5300   -1.4860 c3        1 MOL     -0.356640
    145 C46        13.6180   -0.8320   -1.1810 c3        1 MOL      0.078685
    146 C47        14.8270   -1.5710   -1.7350 c3        1 MOL      0.060227
    147 C48        15.0770   -1.4540   -3.2690 c3        1 MOL     -0.071231
    148 N13        15.8770   -2.5230   -3.8000 n4        1 MOL     -0.194577
    149 H67         9.1540   -1.3910   -1.5660 hn        1 MOL      0.330773
    150 H68        11.3000   -0.6740    0.3130 h1        1 MOL      0.105567
    151 H69        12.1290   -1.5830   -2.5570 hc        1 MOL      0.144476
    152 H70        12.4020   -2.4930   -0.9740 hc        1 MOL      0.144476
    153 H71        13.7350   -0.8520   -0.0950 hc        1 MOL      0.023209
    154 H72        13.6420    0.2410   -1.3690 hc        1 MOL      0.023209
    155 H73        14.6640   -2.6260   -1.5150 hc        1 MOL      0.003693
    156 H74        15.7140   -1.2500   -1.1970 hc        1 MOL      0.003693
    157 H75        15.3710   -0.4150   -3.4400 hx        1 MOL      0.111047
    158 H76        14.1090   -1.5080   -3.7650 hx        1 MOL      0.111047
    159 H77        15.4620   -3.4350   -3.7120 hn        1 MOL      0.253083
    160 H78        16.2550   -2.3730   -4.7230 hn        1 MOL      0.253083
    161 H79        16.7030   -2.6580   -3.2340 hn        1 MOL      0.253083
    162 N14        10.9390    1.5120   -0.5400 n         1 MOL     -0.270172
    163 C49        10.5590    2.8580   -0.8790 c3        1 MOL      0.005811
    164 C50         9.0290    3.0880   -0.5890 c         1 MOL      0.459541
    165 O22         8.3510    3.6330   -1.4880 o         1 MOL     -0.550293
    166 C51        11.5230    3.9220   -0.2190 c3        1 MOL      0.179403
    167 C52        12.9610    3.8300   -0.5830 c3        1 MOL     -0.254758
    168 C53        13.7200    4.9570    0.1120 c         1 MOL      0.699523
    169 O23        14.0210    5.9650   -0.5450 o         1 MOL     -0.668433
    170 O24        13.9720    4.8040    1.3400 o         1 MOL     -0.668433
    171 H80        11.4030    1.4150    0.3500 hn        1 MOL      0.279067
    172 H81        10.6750    3.0090   -1.9520 h1        1 MOL      0.078260
    173 H82        11.5110    3.7700    0.8590 hc        1 MOL     -0.000859
    174 H83        11.1420    4.9320   -0.2670 hc        1 MOL     -0.000859
    175 H84        13.0800    4.0530   -1.6420 hc        1 MOL      0.013773
    176 H85        13.3060    2.8420   -0.3150 hc        1 MOL      0.013773
    177 N15         8.4410    2.7620    0.5270 n         1 MOL     -0.364638
    178 C54         9.0740    2.6410    1.8040 c3        1 MOL      0.039251
    179 H86         9.5360    3.5910    2.0720 h1        1 MOL      0.021395
    180 H87         8.3290    2.3750    2.5550 h1        1 MOL      0.021395
    181 H88         9.8380    1.8650    1.7600 h1        1 MOL      0.021395
    182 H89         7.4350    2.7600    0.5250 hn        1 MOL      0.296120
    183 Ca1        -5.6290    3.6350   -2.0840 Ca        1 MOL      1.717335
    184 O25        -3.1050    3.7070   -1.3870 oh        1 MOL     -0.804054
    185 H90        -2.3140    3.6590   -1.9180 ho        1 MOL      0.398292
    186 H91        -2.8630    4.2780   -0.6560 ho        1 MOL      0.398292
    187 O26        -4.4440    3.0230   -4.5740 oh        1 MOL     -0.804054
    188 H92        -4.2040    2.0980   -4.5460 ho        1 MOL      0.398292
    189 H93        -3.7780    3.4300   -5.1260 ho        1 MOL      0.398292
    190 O27        -7.0170    5.4030   -3.8990 oh        1 MOL     -0.804054
    191 H94        -6.3130    5.8770   -4.3490 ho        1 MOL      0.398292
    192 H95        -7.8050    5.6450   -4.3910 ho        1 MOL      0.398292
    193 O28        -5.0960    1.0530   -2.3930 oh        1 MOL     -0.804054
    194 H96        -4.4370    0.6220   -2.9430 ho        1 MOL      0.398292
    195 H97        -5.6800    0.3390   -2.1140 ho        1 MOL      0.398292
    196 O29        -4.3520    6.0720   -2.7160 oh        1 MOL     -0.804054
    197 H98        -4.0550    6.7410   -2.0960 ho        1 MOL      0.398292
    198 H99        -3.6520    6.0290   -3.3660 ho        1 MOL      0.398292
@<TRIPOS>BOND
     1    1    2 1   
     2    1    4 1   
     3    1    5 1   
     4    1    6 1   
     5    2    3 2   
     6    2    7 1   
     7    7    8 1   
     8    7   15 1   
     9    8    9 1   
    10    8   11 1   
    11    8   16 1   
    12    9   10 2   
    13    9   19 1   
    14   11   12 1   
    15   11   17 1   
    16   11   18 1   
    17   12   13 1   
    18   12   14 1   
    19   19   20 1   
    20   19   28 1   
    21   20   21 1   
    22   20   23 1   
    23   20   29 1   
    24   21   22 2   
    25   21   41 1   
    26   23   24 1   
    27   23   30 1   
    28   23   31 1   
    29   24   25 1   
    30   24   32 1   
    31   24   33 1   
    32   25   26 1   
    33   25   34 1   
    34   25   35 1   
    35   26   27 1   
    36   26   36 1   
    37   26   37 1   
    38   27   38 1   
    39   27   39 1   
    40   27   40 1   
    41   41   42 1   
    42   41   49 1   
    43   42   43 1   
    44   42   45 1   
    45   42   50 1   
    46   43   44 2   
    47   43   53 1   
    48   45   46 1   
    49   45   51 1   
    50   45   52 1   
    51   46   47 1   
    52   46   48 1   
    53   53   54 1   
    54   53   57 1   
    55   54   55 1   
    56   54   58 1   
    57   54   59 1   
    58   55   56 2   
    59   55   60 1   
    60   60   61 1   
    61   60   68 1   
    62   61   62 1   
    63   61   64 1   
    64   61   69 1   
    65   62   63 2   
    66   62   72 1   
    67   64   65 1   
    68   64   70 1   
    69   64   71 1   
    70   65   66 1   
    71   65   67 1   
    72   72   73 1   
    73   72   76 1   
    74   73   74 1   
    75   73   77 1   
    76   73   78 1   
    77   74   75 2   
    78   74   79 1   
    79   79   80 1   
    80   79   86 1   
    81   80   81 1   
    82   80   83 1   
    83   80   87 1   
    84   81   82 2   
    85   81   93 1   
    86   83   84 1   
    87   83   85 1   
    88   83   88 1   
    89   84   90 1   
    90   84   91 1   
    91   84   92 1   
    92   85   89 1   
    93   93   94 1   
    94   93  101 1   
    95   94   95 1   
    96   94   97 1   
    97   94  102 1   
    98   95   96 2   
    99   95  112 1   
   100   97   98 1   
   101   97   99 1   
   102   97  103 1   
   103   98  100 1   
   104   98  104 1   
   105   98  105 1   
   106   99  106 1   
   107   99  107 1   
   108   99  108 1   
   109  100  109 1   
   110  100  110 1   
   111  100  111 1   
   112  112  113 1   
   113  112  119 1   
   114  113  114 1   
   115  113  116 1   
   116  113  120 1   
   117  114  115 2   
   118  114  126 1   
   119  116  117 1   
   120  116  118 1   
   121  116  121 1   
   122  117  123 1   
   123  117  124 1   
   124  117  125 1   
   125  118  122 1   
   126  126  127 1   
   127  126  133 1   
   128  127  128 1   
   129  127  130 1   
   130  127  134 1   
   131  128  129 2   
   132  128  140 1   
   133  130  131 1   
   134  130  132 1   
   135  130  135 1   
   136  131  137 1   
   137  131  138 1   
   138  131  139 1   
   139  132  136 1   
   140  140  141 1   
   141  140  149 1   
   142  141  142 1   
   143  141  144 1   
   144  141  150 1   
   145  142  143 2   
   146  142  162 1   
   147  144  145 1   
   148  144  151 1   
   149  144  152 1   
   150  145  146 1   
   151  145  153 1   
   152  145  154 1   
   153  146  147 1   
   154  146  155 1   
   155  146  156 1   
   156  147  148 1   
   157  147  157 1   
   158  147  158 1   
   159  148  159 1   
   160  148  160 1   
   161  148  161 1   
   162  162  163 1   
   163  162  171 1   
   164  163  164 1   
   165  163  166 1   
   166  163  172 1   
   167  164  165 2   
   168  164  177 1   
   169  166  167 1   
   170  166  173 1   
   171  166  174 1   
   172  167  168 1   
   173  167  175 1   
   174  167  176 1   
   175  168  169 1   
   176  168  170 1   
   177  177  178 1   
   178  177  182 1   
   179  178  179 1   
   180  178  180 1   
   181  178  181 1   
   182  184  185 1   
   183  184  186 1   
   184  187  188 1   
   185  187  189 1   
   186  190  191 1   
   187  190  192 1   
   188  193  194 1   
   189  193  195 1   
   190  196  197 1   
   191  196  198 1   
@<TRIPOS>SUBSTRUCTURE
     1 MOL         1 TEMP              0 ****  ****    0 ROOT
