@<TRIPOS>MOLECULE
MOL
  175   173     1     0     0
SMALL
resp


@<TRIPOS>ATOM
      1 C1         -5.7730    7.7780    1.9740 c3        1 MOL     -0.391902
      2 C2         -6.6210    7.1850    0.8840 c         1 MOL      0.636720
      3 O1         -6.2710    7.4500   -0.2530 o         1 MOL     -0.559102
      4 H1         -5.5570    8.8200    1.7380 hc        1 MOL      0.091844
      5 H2         -6.3080    7.7240    2.9210 hc        1 MOL      0.091844
      6 H3         -4.8380    7.2220    2.0510 hc        1 MOL      0.091844
      7 N1         -7.6520    6.3940    1.2120 n         1 MOL     -0.475850
      8 C3         -8.5180    5.7760    0.2090 c3        1 MOL      0.070059
      9 C4         -7.6500    4.8510   -0.6440 c         1 MOL      0.488895
     10 O2         -8.0070    4.5260   -1.7820 o         1 MOL     -0.504657
     11 C5         -9.5320    4.9530    1.0870 c3        1 MOL     -0.412278
     12 C6        -10.4170    4.1540    0.1510 c         1 MOL      0.778822
     13 O3        -10.1570    2.9370   -0.0210 o         1 MOL     -0.737852
     14 O4        -11.4640    4.6160   -0.4200 o         1 MOL     -0.737852
     15 H4         -7.6840    6.1910    2.2010 hn        1 MOL      0.304143
     16 H5         -8.9960    6.4800   -0.4680 h1        1 MOL      0.104474
     17 H6        -10.1350    5.5530    1.7780 hc        1 MOL      0.078171
     18 H7         -9.0450    4.2450    1.7660 hc        1 MOL      0.078171
     19 N2         -6.5620    4.2580   -0.0990 n         1 MOL     -0.523531
     20 C7         -5.5490    3.4830   -0.7820 c3        1 MOL      0.433185
     21 C8         -4.9060    2.5280    0.2090 c         1 MOL      0.479517
     22 O5         -4.5620    2.9920    1.3080 o         1 MOL     -0.564727
     23 C9         -4.5180    4.5190   -1.2160 c3        1 MOL     -0.195152
     24 H8         -6.4000    4.2160    0.8980 hn        1 MOL      0.257024
     25 H9         -5.8910    2.9890   -1.6850 h1        1 MOL     -0.008790
     26 H10        -3.6290    3.9400   -1.4970 hc        1 MOL      0.044031
     27 H11        -4.8150    5.1560   -2.0490 hc        1 MOL      0.044031
     28 H12        -4.2460    5.1030   -0.3310 hc        1 MOL      0.044031
     29 N3         -4.7970    1.2280   -0.0350 n         1 MOL     -0.397803
     30 C10        -5.4780    0.4430   -1.0830 c3        1 MOL     -0.087494
     31 C11        -5.8130   -0.9140   -0.5510 c         1 MOL      0.524319
     32 O6         -5.2770   -1.3870    0.5100 o         1 MOL     -0.540213
     33 C12        -4.5760    0.3810   -2.2880 c3        1 MOL     -0.195881
     34 C13        -3.1320   -0.0170   -1.9750 c         1 MOL      0.682842
     35 O7         -2.3520    0.6790   -1.2660 o         1 MOL     -0.718593
     36 O8         -2.7390   -1.1800   -2.3170 o         1 MOL     -0.718593
     37 H13        -4.1210    0.7510    0.5510 hn        1 MOL      0.290088
     38 H14        -6.4320    0.9530   -1.2630 h1        1 MOL      0.114327
     39 H15        -4.5550    1.3570   -2.7800 hc        1 MOL      0.053779
     40 H16        -4.9740   -0.2930   -3.0530 hc        1 MOL      0.053779
     41 N4         -6.7370   -1.5950   -1.3350 n         1 MOL     -0.364166
     42 C14        -7.1300   -2.9500   -1.0500 c3        1 MOL      0.016273
     43 C15        -6.8470   -4.0030   -2.1390 c         1 MOL      0.505400
     44 O9         -7.5920   -4.2040   -3.1240 o         1 MOL     -0.565706
     45 H17        -7.2320   -1.0960   -2.0610 hn        1 MOL      0.323943
     46 H18        -8.2150   -2.8920   -1.0490 h1        1 MOL      0.051790
     47 H19        -6.7690   -3.4490   -0.1530 h1        1 MOL      0.051790
     48 N5         -5.7630   -4.7060   -2.0090 n         1 MOL     -0.400701
     49 C16        -4.4750   -4.4640   -1.2390 c3        1 MOL     -0.086989
     50 C17        -4.3750   -5.1170    0.1540 c         1 MOL      0.577469
     51 O10        -4.7060   -6.2820    0.4000 o         1 MOL     -0.566528
     52 C18        -3.3280   -4.8700   -2.1700 c3        1 MOL      0.093291
     53 C19        -1.9470   -4.2940   -1.8960 c         1 MOL      0.360800
     54 N6         -0.9630   -4.6810   -2.6900 n         1 MOL     -0.634562
     55 O11        -1.7630   -3.6200   -0.8860 o         1 MOL     -0.502059
     56 H20        -5.7100   -5.5310   -2.5940 hn        1 MOL      0.272810
     57 H21        -4.3520   -3.3840   -1.2230 h1        1 MOL      0.111324
     58 H22        -3.6650   -4.5770   -3.1640 hc        1 MOL      0.021024
     59 H23        -3.2930   -5.9540   -2.3220 hc        1 MOL      0.021024
     60 H24        -1.1120   -5.3140   -3.4680 hn        1 MOL      0.342814
     61 H25        -0.0440   -4.3550   -2.4170 hn        1 MOL      0.342814
     62 N7         -3.8890   -4.3370    1.1320 n         1 MOL     -0.255900
     63 C20        -3.6840   -4.7500    2.4770 c3        1 MOL     -0.179604
     64 C21        -2.2470   -5.1530    2.7580 c         1 MOL      0.628843
     65 O12        -2.0670   -6.0280    3.5900 o         1 MOL     -0.584431
     66 H26        -3.6110   -3.4160    0.8270 hn        1 MOL      0.258484
     67 H27        -4.2730   -5.6110    2.7580 h1        1 MOL      0.094472
     68 H28        -3.8730   -3.9330    3.1790 h1        1 MOL      0.094472
     69 N8         -1.2740   -4.5980    2.0370 n         1 MOL     -0.484109
     70 C22         0.1010   -5.1000    2.0530 c3        1 MOL      0.013892
     71 C23         1.0220   -3.9460    1.6910 c         1 MOL      0.422401
     72 O13         0.6500   -3.0160    1.0460 o         1 MOL     -0.434186
     73 C24         0.5670   -6.2810    1.0580 c3        1 MOL      0.408263
     74 C25        -0.2500   -7.5240    1.3280 c3        1 MOL     -0.535088
     75 O14         0.2960   -5.9710   -0.2790 oh        1 MOL     -0.568940
     76 H29        -1.5100   -3.8980    1.3520 hn        1 MOL      0.310693
     77 H30         0.3320   -5.4900    3.0520 h1        1 MOL      0.063655
     78 H31         1.5890   -6.4760    1.3570 h1        1 MOL     -0.045229
     79 H32         0.8530   -5.2090   -0.4380 ho        1 MOL      0.414504
     80 H33         0.0380   -7.8550    2.3230 hc        1 MOL      0.141119
     81 H34        -1.3140   -7.2940    1.3500 hc        1 MOL      0.141119
     82 H35        -0.1170   -8.2570    0.5280 hc        1 MOL      0.141119
     83 N9          2.2340   -3.9800    2.2950 n         1 MOL     -0.528083
     84 C26         3.1330   -2.8300    2.3510 c3        1 MOL      0.407456
     85 C27         4.1780   -2.7890    1.2400 c         1 MOL      0.198743
     86 O15         5.3370   -3.3120    1.4080 o         1 MOL     -0.544759
     87 C28         3.7310   -2.4630    3.7930 c3        1 MOL      0.078743
     88 C29         4.1070   -0.9470    3.9040 c3        1 MOL      0.077887
     89 C30         2.7450   -2.8780    4.8990 c3        1 MOL     -0.252882
     90 C31         5.2920   -0.4280    3.1010 c3        1 MOL     -0.420213
     91 H36         2.4400   -4.7810    2.8800 hn        1 MOL      0.292662
     92 H37         2.4580   -2.0130    2.1080 h1        1 MOL     -0.047001
     93 H38         4.6550   -3.0280    3.9030 hc        1 MOL     -0.005617
     94 H39         4.2650   -0.7000    4.9580 hc        1 MOL      0.005367
     95 H40         3.2260   -0.2980    3.8570 hc        1 MOL      0.005367
     96 H41         3.1320   -2.6390    5.8880 hc        1 MOL      0.051918
     97 H42         1.8400   -2.2960    4.7300 hc        1 MOL      0.051918
     98 H43         2.5050   -3.9350    4.8030 hc        1 MOL      0.051918
     99 H44         5.0730   -0.4800    2.0350 hc        1 MOL      0.101522
    100 H45         5.4730    0.6160    3.3500 hc        1 MOL      0.101522
    101 H46         6.1490   -1.0570    3.3610 hc        1 MOL      0.101522
    102 N10         3.8040   -2.3110    0.0380 n         1 MOL     -0.042997
    103 C32         4.4490   -2.5490   -1.2690 c3        1 MOL      0.077027
    104 C33         5.6620   -1.6800   -1.6900 c         1 MOL      0.411536
    105 O16         6.2770   -1.9300   -2.7170 o         1 MOL     -0.525176
    106 C34         3.3790   -2.4980   -2.3740 c3        1 MOL     -0.306800
    107 C35         2.0700   -3.1260   -1.9230 c         1 MOL      0.984993
    108 O17         2.1380   -4.3040   -1.5090 o         1 MOL     -0.799310
    109 O18         1.0000   -2.5180   -2.1470 o         1 MOL     -0.799310
    110 H47         2.9330   -1.8080   -0.0240 hn        1 MOL      0.082744
    111 H48         4.7730   -3.5910   -1.2000 h1        1 MOL      0.086924
    112 H49         3.5680   -3.0020   -3.3180 hc        1 MOL      0.069272
    113 H50         3.2080   -1.4520   -2.5940 hc        1 MOL      0.069272
    114 N11         5.9590   -0.7190   -0.8280 n         1 MOL     -0.323038
    115 C36         6.7790    0.4460   -1.2150 c3        1 MOL      0.254704
    116 C37         6.3520    1.7720   -0.5490 c         1 MOL      0.348763
    117 O19         6.1640    1.7080    0.6680 o         1 MOL     -0.460856
    118 C38         8.2530    0.0880   -0.9170 c3        1 MOL     -0.228760
    119 C39         9.2980    1.1550   -1.3110 ca        1 MOL      0.077133
    120 C40         9.7120    2.1410   -0.4350 ca        1 MOL     -0.103242
    121 C41        10.0190    1.1370   -2.5590 ca        1 MOL     -0.103242
    122 C42        10.7790    3.0010   -0.7490 ca        1 MOL     -0.153002
    123 C43        11.0780    2.0050   -2.9250 ca        1 MOL     -0.153002
    124 C44        11.3930    2.9800   -1.9670 ca        1 MOL     -0.085641
    125 H51         5.5110   -0.7410    0.0790 hn        1 MOL      0.190184
    126 H52         6.7590    0.5540   -2.2960 h1        1 MOL      0.000108
    127 H53         8.4950   -0.8430   -1.4080 hc        1 MOL      0.105818
    128 H54         8.3190   -0.0720    0.1590 hc        1 MOL      0.105818
    129 H55         9.1810    2.3830    0.4880 ha        1 MOL      0.097569
    130 H56         9.8000    0.2460   -3.1260 ha        1 MOL      0.097569
    131 H57        11.0650    3.7950   -0.0540 ha        1 MOL      0.117667
    132 H58        11.5490    2.0280   -3.8920 ha        1 MOL      0.117667
    133 H59        12.0630    3.8030   -2.1800 ha        1 MOL      0.091783
    134 N12         6.3270    2.9020   -1.2640 n         1 MOL     -0.229883
    135 C45         6.3670    4.2250   -0.6410 c3        1 MOL     -0.000744
    136 C46         5.1880    4.5830    0.2510 c         1 MOL      0.403740
    137 O20         5.3680    5.5820    0.9520 o         1 MOL     -0.524605
    138 C47         6.4660    5.2370   -1.8190 c3        1 MOL     -0.084608
    139 C48         7.1650    4.3920   -2.8690 c3        1 MOL     -0.080413
    140 C49         6.5710    3.0480   -2.6520 c3        1 MOL     -0.120784
    141 H60         7.2940    4.2290   -0.0720 h1        1 MOL      0.094320
    142 H61         5.4550    5.5090   -2.1310 hc        1 MOL      0.072535
    143 H62         6.9520    6.1670   -1.5130 hc        1 MOL      0.072535
    144 H63         6.9700    4.7220   -3.8910 hc        1 MOL      0.054139
    145 H64         8.2440    4.2670   -2.7570 hc        1 MOL      0.054139
    146 H65         5.6470    3.0700   -3.2370 h1        1 MOL      0.093461
    147 H66         7.2840    2.3430   -3.0700 h1        1 MOL      0.093461
    148 N13         4.0240    3.9350    0.1650 n         1 MOL     -0.207335
    149 C50         2.8480    4.1030    0.9870 c3        1 MOL     -0.203739
    150 C51         3.0960    4.4260    2.4960 c         1 MOL      0.589467
    151 O21         2.2940    5.1710    3.1050 o         1 MOL     -0.540944
    152 C52         1.7560    2.9880    0.7640 c3        1 MOL     -0.058574
    153 C53         2.0160    1.6590    1.5470 c3        1 MOL     -0.286255
    154 C54         1.3640    0.5270    0.8550 c         1 MOL      0.760411
    155 O22         1.8470   -0.1720   -0.0870 o         1 MOL     -0.745710
    156 O23         0.1860    0.2830    1.2020 o         1 MOL     -0.745710
    157 H67         4.0130    3.1660   -0.4860 hn        1 MOL      0.255772
    158 H68         2.3370    5.0100    0.6560 h1        1 MOL      0.097175
    159 H69         1.6330    2.7890   -0.3090 hc        1 MOL      0.084760
    160 H70         0.7920    3.3100    1.1730 hc        1 MOL      0.084760
    161 H71         1.6010    1.8660    2.5330 hc        1 MOL      0.097104
    162 H72         3.1040    1.5580    1.5020 hc        1 MOL      0.097104
    163 N14         4.1910    3.8940    3.1210 n         1 MOL     -0.265945
    164 C55         4.4540    4.1570    4.5490 c3        1 MOL     -0.177665
    165 H73         4.5910    3.2110    5.0720 h1        1 MOL      0.088144
    166 H74         5.3560    4.7610    4.6480 h1        1 MOL      0.088144
    167 H75         3.6090    4.6920    4.9820 h1        1 MOL      0.088144
    168 H76         4.8700    3.4300    2.5420 hn        1 MOL      0.241187
    169 Ca1        -0.6220   -1.2980   -0.6760 Ca        1 MOL      1.724308
    170 O24         0.2440    0.2500   -2.7310 oh        1 MOL     -0.856404
    171 H77        -0.3310    0.9010   -3.1470 ho        1 MOL      0.409416
    172 H78         0.9560    0.1190   -3.3540 ho        1 MOL      0.409416
    173 O25        -2.4630   -1.6200    1.2000 oh        1 MOL     -0.856404
    174 H79        -2.1990   -1.1360    1.9830 ho        1 MOL      0.409416
    175 H80        -3.3910   -1.3930    1.0890 ho        1 MOL      0.409416
@<TRIPOS>BOND
     1    1    2 1   
     2    1    4 1   
     3    1    5 1   
     4    1    6 1   
     5    2    3 2   
     6    2    7 1   
     7    7    8 1   
     8    7   15 1   
     9    8    9 1   
    10    8   11 1   
    11    8   16 1   
    12    9   10 2   
    13    9   19 1   
    14   11   12 1   
    15   11   17 1   
    16   11   18 1   
    17   12   13 1   
    18   12   14 1   
    19   19   20 1   
    20   19   24 1   
    21   20   21 1   
    22   20   23 1   
    23   20   25 1   
    24   21   22 2   
    25   21   29 1   
    26   23   26 1   
    27   23   27 1   
    28   23   28 1   
    29   29   30 1   
    30   29   37 1   
    31   30   31 1   
    32   30   33 1   
    33   30   38 1   
    34   31   32 2   
    35   31   41 1   
    36   33   34 1   
    37   33   39 1   
    38   33   40 1   
    39   34   35 1   
    40   34   36 1   
    41   41   42 1   
    42   41   45 1   
    43   42   43 1   
    44   42   46 1   
    45   42   47 1   
    46   43   44 2   
    47   43   48 1   
    48   48   49 1   
    49   48   56 1   
    50   49   50 1   
    51   49   52 1   
    52   49   57 1   
    53   50   51 2   
    54   50   62 1   
    55   52   53 1   
    56   52   58 1   
    57   52   59 1   
    58   53   54 1   
    59   53   55 2   
    60   54   60 1   
    61   54   61 1   
    62   62   63 1   
    63   62   66 1   
    64   63   64 1   
    65   63   67 1   
    66   63   68 1   
    67   64   65 2   
    68   64   69 1   
    69   69   70 1   
    70   69   76 1   
    71   70   71 1   
    72   70   73 1   
    73   70   77 1   
    74   71   72 2   
    75   71   83 1   
    76   73   74 1   
    77   73   75 1   
    78   73   78 1   
    79   74   80 1   
    80   74   81 1   
    81   74   82 1   
    82   75   79 1   
    83   83   84 1   
    84   83   91 1   
    85   84   85 1   
    86   84   87 1   
    87   84   92 1   
    88   85   86 2   
    89   85  102 1   
    90   87   88 1   
    91   87   89 1   
    92   87   93 1   
    93   88   90 1   
    94   88   94 1   
    95   88   95 1   
    96   89   96 1   
    97   89   97 1   
    98   89   98 1   
    99   90   99 1   
   100   90  100 1   
   101   90  101 1   
   102  102  103 1   
   103  102  110 1   
   104  103  104 1   
   105  103  106 1   
   106  103  111 1   
   107  104  105 2   
   108  104  114 1   
   109  106  107 1   
   110  106  112 1   
   111  106  113 1   
   112  107  108 1   
   113  107  109 1   
   114  114  115 1   
   115  114  125 1   
   116  115  116 1   
   117  115  118 1   
   118  115  126 1   
   119  116  117 2   
   120  116  134 1   
   121  118  119 1   
   122  118  127 1   
   123  118  128 1   
   124  119  120 ar  
   125  119  121 ar  
   126  120  122 ar  
   127  120  129 1   
   128  121  123 ar  
   129  121  130 1   
   130  122  124 ar  
   131  122  131 1   
   132  123  124 ar  
   133  123  132 1   
   134  124  133 1   
   135  134  135 1   
   136  134  140 1   
   137  135  136 1   
   138  135  138 1   
   139  135  141 1   
   140  136  137 2   
   141  136  148 1   
   142  138  139 1   
   143  138  142 1   
   144  138  143 1   
   145  139  140 1   
   146  139  144 1   
   147  139  145 1   
   148  140  146 1   
   149  140  147 1   
   150  148  149 1   
   151  148  157 1   
   152  149  150 1   
   153  149  152 1   
   154  149  158 1   
   155  150  151 2   
   156  150  163 1   
   157  152  153 1   
   158  152  159 1   
   159  152  160 1   
   160  153  154 1   
   161  153  161 1   
   162  153  162 1   
   163  154  155 1   
   164  154  156 1   
   165  163  164 1   
   166  163  168 1   
   167  164  165 1   
   168  164  166 1   
   169  164  167 1   
   170  170  171 1   
   171  170  172 1   
   172  173  174 1   
   173  173  175 1   
@<TRIPOS>SUBSTRUCTURE
     1 MOL         1 TEMP              0 ****  ****    0 ROOT
