@<TRIPOS>MOLECULE
MOL
  192   187     1     0     0
SMALL
resp


@<TRIPOS>ATOM
      1 C1          1.6720    7.7040   -2.6250 c3        1 MOL     -0.296493
      2 C2          1.8710    6.1920   -2.3550 c         1 MOL      0.591382
      3 O1          2.3360    5.4810   -3.2010 o         1 MOL     -0.575940
      4 H1          0.6830    8.0070   -2.2810 hc        1 MOL      0.071156
      5 H2          2.4320    8.2730   -2.0890 hc        1 MOL      0.071156
      6 H3          1.7590    7.8970   -3.6940 hc        1 MOL      0.071156
      7 N1          1.6350    5.7130   -1.1440 n         1 MOL     -0.139412
      8 C3          1.9080    4.3450   -0.5490 c3        1 MOL     -0.426614
      9 C4          0.6250    3.6900    0.0150 c         1 MOL      0.461935
     10 O2          0.7300    2.7440    0.8240 o         1 MOL     -0.475129
     11 C5          3.0000    4.5040    0.4760 c3        1 MOL     -0.163957
     12 C6          2.7110    5.5420    1.5910 c         1 MOL      0.745892
     13 O3          2.0250    6.5920    1.3310 o         1 MOL     -0.698096
     14 O4          3.3600    5.3980    2.6170 o         1 MOL     -0.698096
     15 H4          1.3770    6.3110   -0.3650 hn        1 MOL      0.140546
     16 H5          2.2450    3.6610   -1.3350 h1        1 MOL      0.272330
     17 H6          3.7690    4.8790   -0.1910 hc        1 MOL      0.092297
     18 H7          3.2150    3.5710    1.0100 hc        1 MOL      0.092297
     19 N2         -0.5530    4.2760   -0.2680 n         1 MOL     -0.226945
     20 C7         -1.8870    3.7570    0.2230 c3        1 MOL      0.347844
     21 C8         -2.6210    3.0900   -0.9800 c         1 MOL      0.194923
     22 O5         -2.6200    3.6350   -2.1150 o         1 MOL     -0.520673
     23 C9         -2.7280    4.8150    0.8710 c3        1 MOL     -0.011011
     24 C10        -2.3320    5.1830    2.3130 c3        1 MOL     -0.183726
     25 C11        -0.8790    5.6980    2.4320 c3        1 MOL      0.008922
     26 C12        -0.8080    6.3240    3.7750 c3        1 MOL      0.176150
     27 N3          0.5510    6.8350    3.9470 n4        1 MOL     -0.476245
     28 H8         -0.5880    5.0820   -0.8670 hn        1 MOL      0.141961
     29 H9         -1.6690    2.9930    0.9680 h1        1 MOL     -0.024841
     30 H10        -3.7900    4.6130    0.8240 hc        1 MOL      0.022176
     31 H11        -2.6310    5.7300    0.2730 hc        1 MOL      0.022176
     32 H12        -2.4810    4.2660    2.8900 hc        1 MOL      0.048090
     33 H13        -3.0660    5.9280    2.6160 hc        1 MOL      0.048090
     34 H14        -0.7920    6.3710    1.5800 hc        1 MOL      0.036928
     35 H15        -0.2290    4.8250    2.4020 hc        1 MOL      0.036928
     36 H16        -1.0550    5.5720    4.5220 hx        1 MOL      0.034633
     37 H17        -1.5460    7.1140    3.9190 hx        1 MOL      0.034633
     38 H18         0.5340    7.6900    4.4720 hn        1 MOL      0.331058
     39 H19         1.1090    6.1400    4.4300 hn        1 MOL      0.331058
     40 H20         0.9040    7.0600    3.0200 hn        1 MOL      0.331058
     41 N4         -3.1430    1.8990   -0.7960 n         1 MOL     -0.215588
     42 C13        -3.0250    0.8990    0.3060 c3        1 MOL      0.039016
     43 C14        -3.4540    1.3650    1.7110 c         1 MOL      0.455927
     44 O6         -2.6900    1.3940    2.7130 o         1 MOL     -0.534898
     45 C15        -1.6650    0.2010    0.4020 c3        1 MOL     -0.092020
     46 C16        -1.1160   -0.2540   -0.9250 c         1 MOL      0.614314
     47 O7          0.0320   -0.8130   -0.8810 o         1 MOL     -0.672754
     48 O8         -1.7350   -0.1470   -2.0230 o         1 MOL     -0.672754
     49 H21        -3.6650    1.5160   -1.5760 hn        1 MOL      0.252109
     50 H22        -3.6990    0.0510    0.1390 h1        1 MOL      0.110259
     51 H23        -1.7450   -0.6610    1.0730 hc        1 MOL      0.069033
     52 H24        -0.9690    0.9310    0.7940 hc        1 MOL      0.069033
     53 N5         -4.7620    1.6450    1.9640 n         1 MOL     -0.380688
     54 C17        -5.9390    1.8840    1.0430 c3        1 MOL     -0.015275
     55 C18        -7.2580    1.8730    1.7880 c         1 MOL      0.571763
     56 O9         -7.2510    1.7360    2.9950 o         1 MOL     -0.536065
     57 H25        -4.9900    1.9000    2.9150 hn        1 MOL      0.279088
     58 H26        -5.9210    1.1360    0.2560 h1        1 MOL      0.037554
     59 H27        -5.8620    2.8330    0.5180 h1        1 MOL      0.037554
     60 N6         -8.4350    1.9340    1.1080 n         1 MOL     -0.424873
     61 C19        -8.5070    1.9430   -0.3680 c3        1 MOL     -0.070057
     62 C20        -8.3150    0.5460   -1.0000 c         1 MOL      0.561799
     63 O10        -8.0430    0.3310   -2.1520 o         1 MOL     -0.552263
     64 C21        -9.8000    2.7090   -0.8330 c3        1 MOL     -0.294715
     65 C22       -11.1120    2.4430   -0.0010 c         1 MOL      0.707963
     66 O11       -11.2410    3.0060    1.1170 o         1 MOL     -0.638363
     67 O12       -12.0680    1.7310   -0.4620 o         1 MOL     -0.638363
     68 H28        -9.2820    1.8750    1.6510 hn        1 MOL      0.284506
     69 H29        -7.7240    2.5630   -0.8000 h1        1 MOL      0.106686
     70 H30       -10.0140    2.4900   -1.8770 hc        1 MOL      0.087949
     71 H31        -9.5460    3.7670   -0.8120 hc        1 MOL      0.087949
     72 N7         -8.2430   -0.4510   -0.1540 n         1 MOL     -0.336216
     73 C23        -7.8490   -1.8430   -0.4860 c3        1 MOL     -0.143843
     74 C24        -6.4860   -2.3510    0.0200 c         1 MOL      0.681823
     75 O13        -5.9990   -1.9420    1.0850 o         1 MOL     -0.549072
     76 H32        -8.5290   -0.2180    0.7820 hn        1 MOL      0.266959
     77 H33        -7.8740   -1.9620   -1.5700 h1        1 MOL      0.099758
     78 H34        -8.5570   -2.5670   -0.0750 h1        1 MOL      0.099758
     79 N8         -6.0370   -3.4340   -0.6990 n         1 MOL     -0.552681
     80 C25        -5.1080   -4.3720   -0.1060 c3        1 MOL      0.007016
     81 C26        -3.6860   -3.8420    0.0410 c         1 MOL      0.468905
     82 O14        -3.2220   -3.1460   -0.8560 o         1 MOL     -0.595744
     83 C27        -5.0730   -5.6790   -0.8370 c3        1 MOL      0.472564
     84 C28        -4.6140   -5.5540   -2.2630 c3        1 MOL     -0.298252
     85 O15        -6.3480   -6.3350   -0.9010 oh        1 MOL     -0.695638
     86 H35        -6.6280   -3.6450   -1.4870 hn        1 MOL      0.336879
     87 H36        -5.4610   -4.6630    0.8840 h1        1 MOL      0.077687
     88 H37        -4.3910   -6.3890   -0.3630 h1        1 MOL     -0.020691
     89 H38        -6.2860   -7.1780   -1.3420 ho        1 MOL      0.420100
     90 H39        -5.1390   -4.7370   -2.7620 hc        1 MOL      0.062553
     91 H40        -3.5300   -5.4830   -2.2310 hc        1 MOL      0.062553
     92 H41        -4.8130   -6.5060   -2.7730 hc        1 MOL      0.062553
     93 N9         -2.8930   -4.3650    1.0390 n         1 MOL     -0.348974
     94 C29        -1.5260   -3.9080    1.4620 c3        1 MOL      0.100780
     95 C30        -0.4950   -4.8680    1.0420 c         1 MOL      0.507716
     96 O16        -0.7700   -6.0520    1.0910 o         1 MOL     -0.543971
     97 C31        -1.4130   -3.6580    2.9640 c3        1 MOL      0.004642
     98 C32        -2.6660   -2.8640    3.4290 c3        1 MOL      0.261730
     99 C33        -0.1640   -2.8460    3.3340 c3        1 MOL     -0.248078
    100 C34        -2.8530   -2.4890    4.8680 c3        1 MOL     -0.289998
    101 H42        -3.2260   -5.1600    1.5560 hn        1 MOL      0.223471
    102 H43        -1.3150   -2.9690    0.9420 h1        1 MOL      0.084687
    103 H44        -1.2990   -4.5820    3.5510 hc        1 MOL      0.019683
    104 H45        -3.4980   -3.5470    3.2640 hc        1 MOL     -0.044964
    105 H46        -2.8570   -2.0100    2.7750 hc        1 MOL     -0.044964
    106 H47         0.8040   -3.2620    3.0540 hc        1 MOL      0.038044
    107 H48        -0.2040   -1.8580    2.8950 hc        1 MOL      0.038044
    108 H49        -0.2420   -2.6620    4.4070 hc        1 MOL      0.038044
    109 H50        -2.2430   -1.6410    5.1770 hc        1 MOL      0.073554
    110 H51        -3.8600   -2.1220    5.0820 hc        1 MOL      0.073554
    111 H52        -2.5900   -3.3220    5.5190 hc        1 MOL      0.073554
    112 N10         0.6990   -4.4500    0.6220 n         1 MOL     -0.243933
    113 C35         1.7560   -5.3940    0.1370 c3        1 MOL     -0.140872
    114 C36         3.1830   -5.1280    0.7290 c         1 MOL      0.448829
    115 O17         4.0330   -6.0470    0.6810 o         1 MOL     -0.504227
    116 C37         1.8910   -5.3930   -1.3920 c3        1 MOL      0.245096
    117 C38         2.2010   -3.9930   -1.9680 c3        1 MOL     -0.041865
    118 O18         0.6460   -5.8160   -1.8470 oh        1 MOL     -0.563570
    119 H53         0.8640   -3.4770    0.4170 hn        1 MOL      0.130948
    120 H54         1.5060   -6.3790    0.5290 h1        1 MOL      0.166843
    121 H55         2.6670   -6.0660   -1.7480 h1        1 MOL      0.050736
    122 H56         0.7880   -5.8850   -2.7980 ho        1 MOL      0.355618
    123 H57         3.0970   -3.5420   -1.5470 hc        1 MOL     -0.007321
    124 H58         2.2560   -4.0280   -3.0540 hc        1 MOL     -0.007321
    125 H59         1.4060   -3.2560   -1.8430 hc        1 MOL     -0.007321
    126 N11         3.4350   -3.9650    1.4260 n         1 MOL     -0.473224
    127 C39         4.7910   -3.4710    1.7900 c3        1 MOL      0.051699
    128 C40         5.7820   -3.1120    0.6710 c         1 MOL      0.603188
    129 O19         5.6250   -3.6270   -0.4160 o         1 MOL     -0.492654
    130 C41         5.5130   -4.3440    2.8360 c3        1 MOL      0.395731
    131 C42         4.6520   -5.0820    3.9460 c3        1 MOL     -0.442496
    132 O20         6.6470   -3.7110    3.3620 oh        1 MOL     -0.649045
    133 H60         2.6550   -3.3200    1.4580 hn        1 MOL      0.380447
    134 H61         4.5610   -2.5100    2.2670 h1        1 MOL     -0.000560
    135 H62         5.9860   -5.0330    2.1280 h1        1 MOL      0.055051
    136 H63         6.4330   -2.9350    3.8870 ho        1 MOL      0.379620
    137 H64         4.0160   -4.3240    4.4050 hc        1 MOL      0.121421
    138 H65         4.1160   -5.8740    3.4130 hc        1 MOL      0.121421
    139 H66         5.3220   -5.5220    4.6750 hc        1 MOL      0.121421
    140 N12         6.7460   -2.2250    0.8400 n         1 MOL     -0.521991
    141 C43         7.5950   -1.8350   -0.3240 c3        1 MOL      0.131250
    142 C44         6.8990   -0.8650   -1.2580 c         1 MOL      0.392304
    143 O21         7.1590   -0.8840   -2.4660 o         1 MOL     -0.525563
    144 C45         9.0040   -1.3650    0.1300 c3        1 MOL     -0.012816
    145 C46         8.9600   -0.0740    0.9510 c3        1 MOL      0.161422
    146 C47        10.2970    0.5710    1.0760 c3        1 MOL      0.192480
    147 C48        10.3870    1.8400    1.8070 c3        1 MOL     -0.168806
    148 N13        10.4220    1.5560    3.2770 n4        1 MOL     -0.184870
    149 H67         6.9760   -1.8560    1.7540 hn        1 MOL      0.239190
    150 H68         7.8040   -2.7040   -0.9570 h1        1 MOL      0.079097
    151 H69         9.5560   -1.1410   -0.7770 hc        1 MOL      0.009049
    152 H70         9.5410   -2.1620    0.6660 hc        1 MOL      0.009049
    153 H71         8.6370   -0.4060    1.9400 hc        1 MOL     -0.068173
    154 H72         8.3540    0.7290    0.5360 hc        1 MOL     -0.068173
    155 H73        10.7400    0.7880    0.1040 hc        1 MOL     -0.039810
    156 H74        10.9730   -0.0900    1.6290 hc        1 MOL     -0.039810
    157 H75         9.5290    2.4360    1.4760 hx        1 MOL      0.142667
    158 H76        11.3610    2.2700    1.6010 hx        1 MOL      0.142667
    159 H77        11.2130    0.9690    3.5130 hn        1 MOL      0.232980
    160 H78        10.5580    2.3760    3.8470 hn        1 MOL      0.232980
    161 H79         9.5980    1.1010    3.6420 hn        1 MOL      0.232980
    162 N14         6.0680    0.1000   -0.7450 n         1 MOL      0.036720
    163 C49         5.5560    1.2400   -1.5350 c3        1 MOL     -0.494771
    164 C50         6.5860    2.3710   -1.7600 c         1 MOL      0.519037
    165 O22         6.9860    3.0420   -0.8080 o         1 MOL     -0.535676
    166 C51         4.2750    1.7720   -0.8980 c3        1 MOL      0.235241
    167 C52         3.2160    0.6950   -0.7850 c3        1 MOL      0.296843
    168 C53         2.6170    0.2890   -2.1600 c         1 MOL      0.644563
    169 O23         2.7820   -0.8650   -2.6370 o         1 MOL     -0.790449
    170 O24         1.9260    1.1290   -2.7820 o         1 MOL     -0.790449
    171 H80         5.9490    0.0660    0.2560 hn        1 MOL      0.123295
    172 H81         5.2410    0.8210   -2.4940 h1        1 MOL      0.204112
    173 H82         3.9060    2.5950   -1.5000 hc        1 MOL     -0.026405
    174 H83         4.6120    2.1300    0.0670 hc        1 MOL     -0.026405
    175 H84         2.4040    1.1230   -0.1730 hc        1 MOL     -0.144367
    176 H85         3.6620   -0.2010   -0.3540 hc        1 MOL     -0.144367
    177 N15         7.0710    2.5020   -2.9930 n         1 MOL     -0.289410
    178 C54         8.3630    3.2350   -3.2250 c3        1 MOL     -0.007041
    179 H86         9.1300    2.5270   -3.5360 h1        1 MOL      0.052795
    180 H87         8.2220    3.9830   -4.0050 h1        1 MOL      0.052795
    181 H88         8.6730    3.7250   -2.3020 h1        1 MOL      0.052795
    182 H89         6.6780    1.9200   -3.7240 hn        1 MOL      0.261901
    183 Ca1         0.2870   -1.0600   -3.5460 Ca        1 MOL      1.746417
    184 O25        -1.0870   -3.1480   -2.5210 oh        1 MOL     -0.869967
    185 H90        -1.8570   -2.8940   -2.0090 ho        1 MOL      0.432336
    186 H91        -1.1370   -4.1070   -2.5490 ho        1 MOL      0.432336
    187 O26        -1.7990   -1.8300   -5.0550 oh        1 MOL     -0.869967
    188 H92        -2.5430   -1.4710   -5.5430 ho        1 MOL      0.432336
    189 H93        -1.9020   -2.7750   -5.1230 ho        1 MOL      0.432336
    190 O27        -0.6900    1.4130   -4.2320 oh        1 MOL     -0.869967
    191 H94        -0.1620    2.1940   -4.0930 ho        1 MOL      0.432336
    192 H95        -1.5030    1.5830   -3.7610 ho        1 MOL      0.432336
@<TRIPOS>BOND
     1    1    2 1   
     2    1    4 1   
     3    1    5 1   
     4    1    6 1   
     5    2    3 2   
     6    2    7 1   
     7    7    8 1   
     8    7   15 1   
     9    8    9 1   
    10    8   11 1   
    11    8   16 1   
    12    9   10 2   
    13    9   19 1   
    14   11   12 1   
    15   11   17 1   
    16   11   18 1   
    17   12   13 1   
    18   12   14 1   
    19   19   20 1   
    20   19   28 1   
    21   20   21 1   
    22   20   23 1   
    23   20   29 1   
    24   21   22 2   
    25   21   41 1   
    26   23   24 1   
    27   23   30 1   
    28   23   31 1   
    29   24   25 1   
    30   24   32 1   
    31   24   33 1   
    32   25   26 1   
    33   25   34 1   
    34   25   35 1   
    35   26   27 1   
    36   26   36 1   
    37   26   37 1   
    38   27   38 1   
    39   27   39 1   
    40   27   40 1   
    41   41   42 1   
    42   41   49 1   
    43   42   43 1   
    44   42   45 1   
    45   42   50 1   
    46   43   44 2   
    47   43   53 1   
    48   45   46 1   
    49   45   51 1   
    50   45   52 1   
    51   46   47 1   
    52   46   48 1   
    53   53   54 1   
    54   53   57 1   
    55   54   55 1   
    56   54   58 1   
    57   54   59 1   
    58   55   56 2   
    59   55   60 1   
    60   60   61 1   
    61   60   68 1   
    62   61   62 1   
    63   61   64 1   
    64   61   69 1   
    65   62   63 2   
    66   62   72 1   
    67   64   65 1   
    68   64   70 1   
    69   64   71 1   
    70   65   66 1   
    71   65   67 1   
    72   72   73 1   
    73   72   76 1   
    74   73   74 1   
    75   73   77 1   
    76   73   78 1   
    77   74   75 2   
    78   74   79 1   
    79   79   80 1   
    80   79   86 1   
    81   80   81 1   
    82   80   83 1   
    83   80   87 1   
    84   81   82 2   
    85   81   93 1   
    86   83   84 1   
    87   83   85 1   
    88   83   88 1   
    89   84   90 1   
    90   84   91 1   
    91   84   92 1   
    92   85   89 1   
    93   93   94 1   
    94   93  101 1   
    95   94   95 1   
    96   94   97 1   
    97   94  102 1   
    98   95   96 2   
    99   95  112 1   
   100   97   98 1   
   101   97   99 1   
   102   97  103 1   
   103   98  100 1   
   104   98  104 1   
   105   98  105 1   
   106   99  106 1   
   107   99  107 1   
   108   99  108 1   
   109  100  109 1   
   110  100  110 1   
   111  100  111 1   
   112  112  113 1   
   113  112  119 1   
   114  113  114 1   
   115  113  116 1   
   116  113  120 1   
   117  114  115 2   
   118  114  126 1   
   119  116  117 1   
   120  116  118 1   
   121  116  121 1   
   122  117  123 1   
   123  117  124 1   
   124  117  125 1   
   125  118  122 1   
   126  126  127 1   
   127  126  133 1   
   128  127  128 1   
   129  127  130 1   
   130  127  134 1   
   131  128  129 2   
   132  128  140 1   
   133  130  131 1   
   134  130  132 1   
   135  130  135 1   
   136  131  137 1   
   137  131  138 1   
   138  131  139 1   
   139  132  136 1   
   140  140  141 1   
   141  140  149 1   
   142  141  142 1   
   143  141  144 1   
   144  141  150 1   
   145  142  143 2   
   146  142  162 1   
   147  144  145 1   
   148  144  151 1   
   149  144  152 1   
   150  145  146 1   
   151  145  153 1   
   152  145  154 1   
   153  146  147 1   
   154  146  155 1   
   155  146  156 1   
   156  147  148 1   
   157  147  157 1   
   158  147  158 1   
   159  148  159 1   
   160  148  160 1   
   161  148  161 1   
   162  162  163 1   
   163  162  171 1   
   164  163  164 1   
   165  163  166 1   
   166  163  172 1   
   167  164  165 2   
   168  164  177 1   
   169  166  167 1   
   170  166  173 1   
   171  166  174 1   
   172  167  168 1   
   173  167  175 1   
   174  167  176 1   
   175  168  169 1   
   176  168  170 1   
   177  177  178 1   
   178  177  182 1   
   179  178  179 1   
   180  178  180 1   
   181  178  181 1   
   182  184  185 1   
   183  184  186 1   
   184  187  188 1   
   185  187  189 1   
   186  190  191 1   
   187  190  192 1   
@<TRIPOS>SUBSTRUCTURE
     1 MOL         1 TEMP              0 ****  ****    0 ROOT
