@<TRIPOS>MOLECULE
MOL
  195   189     1     0     0
SMALL
resp


@<TRIPOS>ATOM
      1 C1          8.1330    7.9290   -2.6870 c3        1 MOL     -0.524790
      2 C2          7.4380    6.5810   -2.6230 c         1 MOL      0.786835
      3 O1          6.2310    6.4560   -2.7040 o         1 MOL     -0.682710
      4 H1          8.0140    8.4430   -1.7340 hc        1 MOL      0.136716
      5 H2          9.1930    7.7820   -2.8920 hc        1 MOL      0.136716
      6 H3          7.6890    8.5300   -3.4810 hc        1 MOL      0.136716
      7 N1          8.3210    5.6510   -2.2300 n         1 MOL     -0.561150
      8 C3          8.0180    4.2090   -1.8630 c3        1 MOL      0.144823
      9 C4          7.4200    4.1810   -0.4470 c         1 MOL      0.504668
     10 O2          7.9580    4.7910    0.4940 o         1 MOL     -0.518641
     11 C5          9.2920    3.3940   -2.1500 c3        1 MOL     -0.125838
     12 C6          9.1860    1.8950   -2.1260 c         1 MOL      0.737728
     13 O3          9.7380    1.1800   -1.2530 o         1 MOL     -0.725936
     14 O4          8.4610    1.5250   -3.0720 o         1 MOL     -0.725936
     15 H4          9.2820    5.9470   -2.1860 hn        1 MOL      0.308551
     16 H5          7.2430    3.8160   -2.5270 h1        1 MOL      0.016515
     17 H6         10.0200    3.6650   -1.3960 hc        1 MOL      0.022416
     18 H7          9.6490    3.6910   -3.1400 hc        1 MOL      0.022416
     19 N2          6.2280    3.5760   -0.2470 n         1 MOL     -0.417480
     20 C7          5.4680    3.5430    1.0290 c3        1 MOL      0.261396
     21 C8          6.0480    2.4140    1.9660 c         1 MOL      0.497817
     22 O5          6.2010    2.8820    3.0950 o         1 MOL     -0.575876
     23 C9          3.9540    3.5260    0.9410 c3        1 MOL     -0.186687
     24 C10         3.3630    4.6130    0.0920 c3        1 MOL      0.064926
     25 C11         3.6050    6.0670    0.4810 c3        1 MOL     -0.187691
     26 C12         2.8890    7.1690   -0.3520 c3        1 MOL      0.004132
     27 N3          3.4530    7.2450   -1.7360 n4        1 MOL     -0.394349
     28 H8          5.8640    3.0390   -1.0240 hn        1 MOL      0.243449
     29 H9          5.7400    4.4130    1.6370 h1        1 MOL      0.006860
     30 H10         3.6160    3.5590    1.9850 hc        1 MOL      0.078234
     31 H11         3.5590    2.6060    0.5130 hc        1 MOL      0.078234
     32 H12         2.3190    4.3560   -0.0790 hc        1 MOL     -0.006912
     33 H13         3.9170    4.4910   -0.8370 hc        1 MOL     -0.006912
     34 H14         4.6650    6.2850    0.3550 hc        1 MOL      0.099420
     35 H15         3.3040    6.2630    1.5130 hc        1 MOL      0.099420
     36 H16         2.9000    8.1500    0.1090 hx        1 MOL      0.096770
     37 H17         1.8150    6.9640   -0.3530 hx        1 MOL      0.096770
     38 H18         4.4490    7.4030   -1.6710 hn        1 MOL      0.337378
     39 H19         3.2660    6.3250   -2.0990 hn        1 MOL      0.337378
     40 H20         3.0190    7.9270   -2.3450 hn        1 MOL      0.337378
     41 N4          6.2620    1.1250    1.7630 n         1 MOL     -0.342542
     42 C13         6.3220    0.4430    0.4700 c3        1 MOL      0.169980
     43 C14         7.0420   -0.8710    0.7780 c         1 MOL      0.440249
     44 O6          7.2420   -1.2700    1.9300 o         1 MOL     -0.465906
     45 C15         4.9520    0.2040   -0.0940 c3        1 MOL     -0.064164
     46 C16         3.9900   -0.5850    0.7700 c         1 MOL      0.762689
     47 O7          3.7490   -1.7670    0.4850 o         1 MOL     -0.824881
     48 O8          3.4030   -0.0170    1.7290 o         1 MOL     -0.824881
     49 H21         6.6230    0.7530    2.6210 hn        1 MOL      0.262946
     50 H22         6.9190    0.9740   -0.2630 h1        1 MOL     -0.034735
     51 H23         5.1020   -0.2920   -1.0540 hc        1 MOL     -0.024767
     52 H24         4.4290    1.1110   -0.4150 hc        1 MOL     -0.024767
     53 N5          7.3590   -1.6540   -0.2940 n         1 MOL     -0.121485
     54 C17         8.1410   -2.9320   -0.2440 c3        1 MOL     -0.425587
     55 C18         7.4120   -4.1230    0.2640 c         1 MOL      0.487390
     56 O9          7.9530   -5.2080    0.1840 o         1 MOL     -0.512580
     57 H25         7.2190   -1.2410   -1.1990 hn        1 MOL      0.195136
     58 H26         9.0850   -2.7300    0.2690 h1        1 MOL      0.185097
     59 H27         8.3410   -3.2400   -1.2660 h1        1 MOL      0.185097
     60 N6          6.1460   -3.9120    0.6680 n         1 MOL     -0.085646
     61 C19         5.2220   -4.9880    0.9610 c3        1 MOL      0.261211
     62 C20         5.3340   -6.2110   -0.0340 c         1 MOL      0.456880
     63 O10         5.6740   -7.2870    0.3820 o         1 MOL     -0.527947
     64 C21         5.3010   -5.4070    2.4440 c3        1 MOL     -0.314677
     65 C22         4.9340   -4.2430    3.4220 c         1 MOL      0.550338
     66 O11         5.3110   -4.2930    4.6400 o         1 MOL     -0.635960
     67 O12         4.1260   -3.3370    3.0960 o         1 MOL     -0.635960
     68 H28         5.7650   -2.9770    0.6740 hn        1 MOL      0.131578
     69 H29         4.2120   -4.5770    0.9270 h1        1 MOL     -0.072689
     70 H30         6.2800   -5.7730    2.7590 hc        1 MOL      0.088848
     71 H31         4.5830   -6.1900    2.6660 hc        1 MOL      0.088848
     72 N7          5.1010   -6.0360   -1.3280 n         1 MOL     -0.410551
     73 C23         4.5810   -4.8530   -1.9890 c3        1 MOL      0.014757
     74 C24         3.0610   -4.7750   -1.8980 c         1 MOL      0.343249
     75 O13         2.3830   -5.6190   -2.5480 o         1 MOL     -0.524546
     76 H32         5.4030   -6.7580   -1.9580 hn        1 MOL      0.302723
     77 H33         4.7420   -4.9330   -3.0600 h1        1 MOL      0.048925
     78 H34         5.1200   -3.9850   -1.6110 h1        1 MOL      0.048925
     79 N8          2.4300   -3.8540   -1.1150 n         1 MOL     -0.065400
     80 C25         0.9690   -3.9000   -0.9360 c3        1 MOL     -0.333554
     81 C26         0.4960   -2.3740   -0.8170 c         1 MOL      0.556427
     82 O14         0.8790   -1.7110    0.0980 o         1 MOL     -0.362135
     83 C27         0.5810   -4.8120    0.2580 c3        1 MOL      0.366037
     84 C28        -0.8920   -5.1020    0.4380 c3        1 MOL     -0.450141
     85 O15         1.1640   -4.3660    1.4450 oh        1 MOL     -0.684342
     86 H35         2.9800   -3.1780   -0.6050 hn        1 MOL      0.165141
     87 H36         0.5970   -4.3550   -1.8460 h1        1 MOL      0.128459
     88 H37         1.0390   -5.7920    0.1480 h1        1 MOL      0.084554
     89 H38         1.3870   -5.2110    1.8390 ho        1 MOL      0.383997
     90 H39        -1.1020   -5.9000    1.1510 hc        1 MOL      0.120380
     91 H40        -1.4120   -4.1950    0.7430 hc        1 MOL      0.120380
     92 H41        -1.2890   -5.5850   -0.4640 hc        1 MOL      0.120380
     93 N9         -0.1550   -1.7840   -1.8460 n         1 MOL     -0.455301
     94 C29        -0.6480   -0.3590   -1.9220 c3        1 MOL     -0.042892
     95 C30        -1.7580    0.0220   -0.8960 c         1 MOL      0.603521
     96 O16        -1.7620   -0.4890    0.2680 o         1 MOL     -0.613188
     97 C31         0.6150    0.5900   -1.9420 c3        1 MOL      0.114412
     98 C32         1.5920    0.2300   -3.0160 c3        1 MOL      0.198571
     99 C33         0.2360    2.0820   -1.9730 c3        1 MOL     -0.000953
    100 C34         1.1080    0.3170   -4.4550 c3        1 MOL     -0.386540
    101 H42        -0.4300   -2.3530   -2.6330 hn        1 MOL      0.310281
    102 H43        -1.0420   -0.2030   -2.9170 h1        1 MOL      0.045744
    103 H44         1.0900    0.3400   -0.9930 hc        1 MOL     -0.069417
    104 H45         2.0200   -0.7650   -2.9280 hc        1 MOL     -0.000693
    105 H46         2.4530    0.8860   -2.9090 hc        1 MOL     -0.000693
    106 H47        -0.1600    2.4660   -1.0330 hc        1 MOL     -0.009960
    107 H48         1.0640    2.7230   -2.2480 hc        1 MOL     -0.009960
    108 H49        -0.4670    2.2170   -2.7900 hc        1 MOL     -0.009960
    109 H50         0.6800    1.3060   -4.6260 hc        1 MOL      0.093160
    110 H51         1.9880    0.3020   -5.0970 hc        1 MOL      0.093160
    111 H52         0.4660   -0.5110   -4.7470 hc        1 MOL      0.093160
    112 N10        -2.8570    0.6880   -1.2360 n         1 MOL     -0.560298
    113 C35        -4.0500    1.0830   -0.4020 c3        1 MOL      0.218636
    114 C36        -5.3570    0.6640   -1.0650 c         1 MOL      0.494148
    115 O17        -6.3320    1.3870   -1.0010 o         1 MOL     -0.514830
    116 C37        -3.9680    2.6030   -0.0900 c3        1 MOL      0.358220
    117 C38        -3.7850    3.5160   -1.3030 c3        1 MOL     -0.250433
    118 O18        -2.8320    2.7820    0.7010 oh        1 MOL     -0.641381
    119 H53        -2.8900    1.0580   -2.1720 hn        1 MOL      0.278745
    120 H54        -3.9780    0.5190    0.5300 h1        1 MOL      0.071401
    121 H55        -4.8880    2.8890    0.4080 h1        1 MOL      0.015467
    122 H56        -2.7190    2.1170    1.3810 ho        1 MOL      0.393952
    123 H57        -3.5940    4.5120   -0.9100 hc        1 MOL      0.054563
    124 H58        -2.9560    3.1670   -1.9220 hc        1 MOL      0.054563
    125 H59        -4.7010    3.6570   -1.8850 hc        1 MOL      0.054563
    126 N11        -5.3680   -0.4590   -1.7230 n         1 MOL     -0.457020
    127 C39        -6.5480   -1.1190   -2.2930 c3        1 MOL      0.030310
    128 C40        -7.7100   -1.0410   -1.2640 c         1 MOL      0.311412
    129 O19        -7.5310   -1.3530   -0.0440 o         1 MOL     -0.438221
    130 C41        -6.1810   -2.5600   -2.7620 c3        1 MOL      0.385269
    131 C42        -7.1450   -3.1560   -3.7900 c3        1 MOL     -0.406724
    132 O20        -4.9330   -2.5060   -3.4330 oh        1 MOL     -0.672533
    133 H60        -4.5070   -0.9940   -1.7140 hn        1 MOL      0.311818
    134 H61        -6.9170   -0.5430   -3.1400 h1        1 MOL      0.080207
    135 H62        -6.0950   -3.2000   -1.8780 h1        1 MOL      0.014660
    136 H63        -4.8870   -3.3160   -3.9440 ho        1 MOL      0.427687
    137 H64        -6.7340   -4.1310   -4.0400 hc        1 MOL      0.104017
    138 H65        -8.1180   -3.1280   -3.2930 hc        1 MOL      0.104017
    139 H66        -7.1780   -2.5050   -4.6640 hc        1 MOL      0.104017
    140 N12        -8.8740   -0.5290   -1.6930 n         1 MOL     -0.236722
    141 C43       -10.0580   -0.2810   -0.7770 c3        1 MOL     -0.039098
    142 C44        -9.7610    0.5290    0.5730 c         1 MOL      0.583933
    143 O21       -10.3660    0.2160    1.5730 o         1 MOL     -0.493888
    144 C45       -10.6140   -1.6400   -0.4690 c3        1 MOL     -0.212227
    145 C46       -10.9500   -2.5780   -1.6670 c3        1 MOL     -0.098619
    146 C47       -12.0690   -2.1510   -2.4780 c3        1 MOL     -0.011958
    147 C48       -12.2090   -3.0310   -3.7640 c3        1 MOL      0.063160
    148 N13       -13.5520   -2.7480   -4.3760 n4        1 MOL     -0.230386
    149 H67        -8.8170   -0.1060   -2.6040 hn        1 MOL      0.214278
    150 H68       -10.8280    0.2580   -1.3300 h1        1 MOL      0.084289
    151 H69       -11.5010   -1.6090    0.1590 hc        1 MOL      0.127992
    152 H70        -9.9190   -2.2580    0.0990 hc        1 MOL      0.127992
    153 H71       -11.2730   -3.5340   -1.2330 hc        1 MOL      0.046226
    154 H72       -10.1190   -2.7960   -2.3330 hc        1 MOL      0.046226
    155 H73       -11.9390   -1.1100   -2.7740 hc        1 MOL      0.040621
    156 H74       -12.9860   -2.1730   -1.8840 hc        1 MOL      0.040621
    157 H75       -12.1200   -4.0950   -3.4960 hx        1 MOL      0.060610
    158 H76       -11.3840   -2.8480   -4.4620 hx        1 MOL      0.060610
    159 H77       -13.6630   -1.8910   -4.8960 hn        1 MOL      0.220911
    160 H78       -13.8420   -3.4500   -5.0440 hn        1 MOL      0.220911
    161 H79       -14.2740   -2.8130   -3.6750 hn        1 MOL      0.220911
    162 N14        -8.8830    1.5670    0.6440 n         1 MOL     -0.692768
    163 C49        -8.4200    2.1180    1.9400 c3        1 MOL      0.522332
    164 C50        -7.1030    2.8740    1.7730 c         1 MOL      0.245507
    165 O22        -6.0860    2.3830    2.3410 o         1 MOL     -0.563905
    166 C51        -9.5500    2.9630    2.6470 c3        1 MOL     -0.276437
    167 C52        -9.1350    3.3750    4.0940 c3        1 MOL     -0.036090
    168 C53       -10.2910    3.8340    4.9640 c         1 MOL      0.643277
    169 O23       -11.0340    4.7640    4.5010 o         1 MOL     -0.626147
    170 O24       -10.3210    3.3910    6.1670 o         1 MOL     -0.626147
    171 H80        -8.2480    1.7030   -0.1340 hn        1 MOL      0.297665
    172 H81        -8.2720    1.2200    2.5320 h1        1 MOL      0.046218
    173 H82       -10.5640    2.5850    2.6990 hc        1 MOL      0.082968
    174 H83        -9.6860    3.8920    2.0870 hc        1 MOL      0.082968
    175 H84        -8.3840    4.1680    4.0480 hc        1 MOL      0.002580
    176 H85        -8.7160    2.4480    4.4890 hc        1 MOL      0.002580
    177 N15        -6.8350    3.9040    0.9000 n         1 MOL     -0.187272
    178 C54        -7.7470    4.7920    0.1570 c3        1 MOL      0.014444
    179 H86        -7.5080    5.8310    0.3850 h1        1 MOL      0.023074
    180 H87        -7.6320    4.6200   -0.9130 h1        1 MOL      0.023074
    181 H88        -8.7770    4.5850    0.4510 h1        1 MOL      0.023074
    182 H89        -5.8910    4.2590    0.8840 hn        1 MOL      0.258529
    183 Ca1         1.9300   -1.9910    2.4790 Ca        1 MOL      1.705661
    184 O25        -0.9150   -2.1030    2.3430 oh        1 MOL     -0.822183
    185 H90        -0.9600   -1.4750    1.6120 ho        1 MOL      0.419367
    186 H91        -1.7870   -2.0840    2.7340 ho        1 MOL      0.419367
    187 O26         1.1010   -3.7440    4.4370 oh        1 MOL     -0.822183
    188 H92         1.8830   -4.2220    4.7150 ho        1 MOL      0.419367
    189 H93         0.5420   -4.4020    4.0300 ho        1 MOL      0.419367
    190 O27         0.7260    0.3290    2.1190 oh        1 MOL     -0.822183
    191 H94         0.6540    1.1300    2.6450 ho        1 MOL      0.419367
    192 H95         0.8530    0.6390    1.2260 ho        1 MOL      0.419367
    193 O28         2.5600   -0.7040    4.7290 oh        1 MOL     -0.822183
    194 H96         2.9870    0.1390    4.6100 ho        1 MOL      0.419367
    195 H97         2.6050   -0.8660    5.6710 ho        1 MOL      0.419367
@<TRIPOS>BOND
     1    1    2 1   
     2    1    4 1   
     3    1    5 1   
     4    1    6 1   
     5    2    3 2   
     6    2    7 1   
     7    7    8 1   
     8    7   15 1   
     9    8    9 1   
    10    8   11 1   
    11    8   16 1   
    12    9   10 2   
    13    9   19 1   
    14   11   12 1   
    15   11   17 1   
    16   11   18 1   
    17   12   13 1   
    18   12   14 1   
    19   19   20 1   
    20   19   28 1   
    21   20   21 1   
    22   20   23 1   
    23   20   29 1   
    24   21   22 2   
    25   21   41 1   
    26   23   24 1   
    27   23   30 1   
    28   23   31 1   
    29   24   25 1   
    30   24   32 1   
    31   24   33 1   
    32   25   26 1   
    33   25   34 1   
    34   25   35 1   
    35   26   27 1   
    36   26   36 1   
    37   26   37 1   
    38   27   38 1   
    39   27   39 1   
    40   27   40 1   
    41   41   42 1   
    42   41   49 1   
    43   42   43 1   
    44   42   45 1   
    45   42   50 1   
    46   43   44 2   
    47   43   53 1   
    48   45   46 1   
    49   45   51 1   
    50   45   52 1   
    51   46   47 1   
    52   46   48 1   
    53   53   54 1   
    54   53   57 1   
    55   54   55 1   
    56   54   58 1   
    57   54   59 1   
    58   55   56 2   
    59   55   60 1   
    60   60   61 1   
    61   60   68 1   
    62   61   62 1   
    63   61   64 1   
    64   61   69 1   
    65   62   63 2   
    66   62   72 1   
    67   64   65 1   
    68   64   70 1   
    69   64   71 1   
    70   65   66 1   
    71   65   67 1   
    72   72   73 1   
    73   72   76 1   
    74   73   74 1   
    75   73   77 1   
    76   73   78 1   
    77   74   75 2   
    78   74   79 1   
    79   79   80 1   
    80   79   86 1   
    81   80   81 1   
    82   80   83 1   
    83   80   87 1   
    84   81   82 2   
    85   81   93 1   
    86   83   84 1   
    87   83   85 1   
    88   83   88 1   
    89   84   90 1   
    90   84   91 1   
    91   84   92 1   
    92   85   89 1   
    93   93   94 1   
    94   93  101 1   
    95   94   95 1   
    96   94   97 1   
    97   94  102 1   
    98   95   96 2   
    99   95  112 1   
   100   97   98 1   
   101   97   99 1   
   102   97  103 1   
   103   98  100 1   
   104   98  104 1   
   105   98  105 1   
   106   99  106 1   
   107   99  107 1   
   108   99  108 1   
   109  100  109 1   
   110  100  110 1   
   111  100  111 1   
   112  112  113 1   
   113  112  119 1   
   114  113  114 1   
   115  113  116 1   
   116  113  120 1   
   117  114  115 2   
   118  114  126 1   
   119  116  117 1   
   120  116  118 1   
   121  116  121 1   
   122  117  123 1   
   123  117  124 1   
   124  117  125 1   
   125  118  122 1   
   126  126  127 1   
   127  126  133 1   
   128  127  128 1   
   129  127  130 1   
   130  127  134 1   
   131  128  129 2   
   132  128  140 1   
   133  130  131 1   
   134  130  132 1   
   135  130  135 1   
   136  131  137 1   
   137  131  138 1   
   138  131  139 1   
   139  132  136 1   
   140  140  141 1   
   141  140  149 1   
   142  141  142 1   
   143  141  144 1   
   144  141  150 1   
   145  142  143 2   
   146  142  162 1   
   147  144  145 1   
   148  144  151 1   
   149  144  152 1   
   150  145  146 1   
   151  145  153 1   
   152  145  154 1   
   153  146  147 1   
   154  146  155 1   
   155  146  156 1   
   156  147  148 1   
   157  147  157 1   
   158  147  158 1   
   159  148  159 1   
   160  148  160 1   
   161  148  161 1   
   162  162  163 1   
   163  162  171 1   
   164  163  164 1   
   165  163  166 1   
   166  163  172 1   
   167  164  165 2   
   168  164  177 1   
   169  166  167 1   
   170  166  173 1   
   171  166  174 1   
   172  167  168 1   
   173  167  175 1   
   174  167  176 1   
   175  168  169 1   
   176  168  170 1   
   177  177  178 1   
   178  177  182 1   
   179  178  179 1   
   180  178  180 1   
   181  178  181 1   
   182  184  185 1   
   183  184  186 1   
   184  187  188 1   
   185  187  189 1   
   186  190  191 1   
   187  190  192 1   
   188  193  194 1   
   189  193  195 1   
@<TRIPOS>SUBSTRUCTURE
     1 MOL         1 TEMP              0 ****  ****    0 ROOT
