@<TRIPOS>MOLECULE
MOL
  181   177     1     0     0
SMALL
resp


@<TRIPOS>ATOM
      1 C1          0.8100    6.8310   -2.9430 c3        1 MOL     -0.444004
      2 C2          2.0570    6.7420   -1.9930 c         1 MOL      0.729212
      3 O1          2.1020    7.3700   -0.9080 o         1 MOL     -0.580868
      4 H1          0.0710    6.0880   -2.6410 hc        1 MOL      0.109251
      5 H2          0.3710    7.8260   -2.8750 hc        1 MOL      0.109251
      6 H3          1.1210    6.6380   -3.9700 hc        1 MOL      0.109251
      7 N1          3.0840    5.9590   -2.4090 n         1 MOL     -0.632396
      8 C3          4.3670    5.8180   -1.7070 c3        1 MOL      0.211546
      9 C4          4.3610    4.7200   -0.6200 c         1 MOL      0.621446
     10 O2          3.8140    3.6040   -0.7150 o         1 MOL     -0.596290
     11 C5          5.5770    5.5790   -2.6780 c3        1 MOL     -0.213856
     12 C6          6.9380    5.6330   -2.0480 c         1 MOL      0.674173
     13 O3          7.2910    6.5710   -1.3380 o         1 MOL     -0.711301
     14 O4          7.7130    4.6300   -2.2310 o         1 MOL     -0.711301
     15 H4          3.0240    5.4260   -3.2620 hn        1 MOL      0.314075
     16 H5          4.5070    6.7970   -1.2410 h1        1 MOL      0.023239
     17 H6          5.4150    6.2600   -3.5220 hc        1 MOL      0.024020
     18 H7          5.3910    4.5950   -3.1020 hc        1 MOL      0.024020
     19 N2          5.1190    5.0010    0.4450 n         1 MOL     -0.578950
     20 C7          5.1000    4.1730    1.6400 c3        1 MOL      0.602226
     21 C8          3.7130    3.9520    2.2840 c         1 MOL      0.259291
     22 O5          2.7880    4.7840    2.0980 o         1 MOL     -0.516778
     23 C9          6.0190    4.8730    2.6450 c3        1 MOL     -0.372369
     24 H8          5.4990    5.9320    0.5190 hn        1 MOL      0.289297
     25 H9          5.5600    3.1960    1.5010 h1        1 MOL     -0.065671
     26 H10         5.7360    5.9200    2.7620 hc        1 MOL      0.081532
     27 H11         5.9370    4.3070    3.5840 hc        1 MOL      0.081532
     28 H12         7.0690    4.7690    2.3770 hc        1 MOL      0.081532
     29 N3          3.4070    2.7680    2.8080 n         1 MOL     -0.315911
     30 C10         4.3270    1.6290    3.2150 c3        1 MOL      0.036253
     31 C11         4.5590    0.6640    2.0270 c         1 MOL      0.297282
     32 O6          3.7090    0.4860    1.1550 o         1 MOL     -0.421868
     33 C12         3.8880    0.9560    4.4650 c3        1 MOL     -0.315028
     34 C13         2.4300    0.6380    4.6210 c         1 MOL      0.746090
     35 O7          1.8550    0.0530    3.6890 o         1 MOL     -0.667560
     36 O8          1.8810    0.8900    5.7130 o         1 MOL     -0.667560
     37 H13         2.4370    2.5790    2.9940 hn        1 MOL      0.318444
     38 H14         5.3140    2.0270    3.4770 h1        1 MOL      0.087252
     39 H15         4.1870    1.6110    5.2840 hc        1 MOL      0.045947
     40 H16         4.3850   -0.0140    4.4670 hc        1 MOL      0.045947
     41 N4          5.7250    0.0220    2.0650 n         1 MOL     -0.206529
     42 C14         5.9400   -1.2040    1.3100 c3        1 MOL      0.024574
     43 C15         7.2620   -1.0140    0.5320 c         1 MOL      0.597540
     44 O9          8.0800   -0.1650    0.7730 o         1 MOL     -0.523585
     45 H17         6.4500    0.2640    2.7210 hn        1 MOL      0.216136
     46 H18         5.1310   -1.3300    0.5940 h1        1 MOL      0.036460
     47 H19         5.9910   -2.0470    1.9970 h1        1 MOL      0.036460
     48 N5          7.5630   -1.9520   -0.3730 n         1 MOL     -0.485861
     49 C16         6.8780   -3.2410   -0.5360 c3        1 MOL      0.054972
     50 C17         5.7080   -3.1800   -1.5490 c         1 MOL      0.437381
     51 O10         5.3390   -2.0580   -1.9340 o         1 MOL     -0.449296
     52 C18         7.9290   -4.2520   -0.9100 c3        1 MOL     -0.168951
     53 C19         8.5370   -4.0860   -2.3170 c         1 MOL      0.608783
     54 N6          8.6320   -5.1620   -3.0820 n         1 MOL     -0.763116
     55 O11         8.8850   -2.9530   -2.7820 o         1 MOL     -0.489507
     56 H20         8.4500   -1.8140   -0.8350 hn        1 MOL      0.310571
     57 H21         6.4420   -3.5780    0.4100 h1        1 MOL      0.061656
     58 H22         7.5460   -5.2630   -0.7550 hc        1 MOL      0.046382
     59 H23         8.7450   -4.0660   -0.2070 hc        1 MOL      0.046382
     60 H24         8.1530   -5.9820   -2.7340 hn        1 MOL      0.365185
     61 H25         8.6840   -4.9430   -4.0730 hn        1 MOL      0.365185
     62 N7          5.0110   -4.3010   -1.8280 n         1 MOL     -0.338922
     63 C20         4.0960   -4.4610   -2.9680 c3        1 MOL     -0.118612
     64 C21         2.6570   -4.8460   -2.6420 c         1 MOL      0.458552
     65 O12         1.7790   -5.1470   -3.5050 o         1 MOL     -0.545992
     66 H26         5.5750   -5.0850   -1.5140 hn        1 MOL      0.249573
     67 H27         4.5480   -5.2690   -3.5550 h1        1 MOL      0.113197
     68 H28         4.0650   -3.5850   -3.6110 h1        1 MOL      0.113197
     69 N8          2.3250   -4.7840   -1.3240 n         1 MOL     -0.180229
     70 C22         1.0660   -5.1430   -0.7280 c3        1 MOL      0.008063
     71 C23         0.0090   -4.0490   -0.5940 c         1 MOL      0.519381
     72 O13         0.2230   -3.0170    0.0130 o         1 MOL     -0.544048
     73 C24         1.2290   -5.7120    0.6690 c3        1 MOL      0.550285
     74 C25        -0.0500   -6.5390    0.9990 c3        1 MOL     -0.437683
     75 O14         2.2420   -6.6290    0.6950 oh        1 MOL     -0.658558
     76 H29         3.0790   -4.6970   -0.6530 hn        1 MOL      0.083181
     77 H30         0.6330   -5.9350   -1.3440 h1        1 MOL      0.055773
     78 H31         1.4170   -4.8980    1.3750 h1        1 MOL     -0.046809
     79 H32         2.2930   -6.7100    1.6410 ho        1 MOL      0.378863
     80 H33        -0.8890   -5.9690    1.3990 hc        1 MOL      0.106113
     81 H34        -0.3710   -7.0590    0.1020 hc        1 MOL      0.106113
     82 H35         0.2170   -7.2590    1.7670 hc        1 MOL      0.106113
     83 N9         -1.2100   -4.3650   -1.1420 n         1 MOL     -0.575793
     84 C26        -2.4700   -3.5270   -0.8990 c3        1 MOL     -0.126223
     85 C27        -2.8620   -3.5230    0.5790 c         1 MOL      0.529201
     86 O15        -3.1170   -4.5760    1.1660 o         1 MOL     -0.584169
     87 C28        -3.5920   -3.8930   -1.8390 c3        1 MOL      0.204702
     88 C29        -4.7630   -2.9910   -1.6970 c3        1 MOL     -0.078442
     89 C30        -3.1290   -3.7330   -3.3350 c3        1 MOL     -0.145272
     90 C31        -6.0750   -3.2280   -2.5630 c3        1 MOL      0.004989
     91 H36        -1.3800   -5.1900   -1.6940 hn        1 MOL      0.322669
     92 H37        -2.0490   -2.5480   -1.0880 h1        1 MOL      0.235104
     93 H38        -3.8710   -4.9370   -1.7140 hc        1 MOL      0.010270
     94 H39        -4.4160   -1.9590   -1.7860 hc        1 MOL      0.003954
     95 H40        -5.1730   -3.2340   -0.7190 hc        1 MOL      0.003954
     96 H41        -2.2400   -4.3060   -3.6040 hc        1 MOL      0.026275
     97 H42        -3.8660   -4.1340   -4.0170 hc        1 MOL      0.026275
     98 H43        -2.8720   -2.7100   -3.5900 hc        1 MOL      0.026275
     99 H44        -6.2890   -4.1780   -3.0500 hc        1 MOL     -0.009851
    100 H45        -6.9910   -3.0060   -2.0020 hc        1 MOL     -0.009851
    101 H46        -6.1410   -2.5010   -3.3740 hc        1 MOL     -0.009851
    102 N10        -3.0830   -2.3630    1.2290 n         1 MOL     -0.070366
    103 C32        -3.8240   -2.1690    2.5090 c3        1 MOL     -0.041424
    104 C33        -5.1740   -1.3790    2.4110 c         1 MOL      0.493709
    105 O16        -5.8700   -1.4670    3.4160 o         1 MOL     -0.550075
    106 C34        -2.7970   -1.5590    3.4720 c3        1 MOL      0.037132
    107 C35        -1.5130   -2.3900    3.6220 c         1 MOL      0.630269
    108 O17        -0.5670   -2.1740    2.8530 o         1 MOL     -0.675999
    109 O18        -1.4920   -3.2200    4.5470 o         1 MOL     -0.675999
    110 H47        -2.9350   -1.5040    0.7170 hn        1 MOL     -0.107925
    111 H48        -4.1330   -3.1270    2.9300 h1        1 MOL      0.099200
    112 H49        -3.1990   -1.4700    4.4900 hc        1 MOL     -0.015924
    113 H50        -2.6380   -0.5110    3.2230 hc        1 MOL     -0.015924
    114 N11        -5.4530   -0.6690    1.3560 n         1 MOL     -0.509176
    115 C36        -6.6150    0.1930    1.2090 c3        1 MOL      0.332731
    116 C37        -6.2800    1.4770    0.4320 c         1 MOL      0.195493
    117 O19        -6.6200    1.5740   -0.7320 o         1 MOL     -0.403440
    118 C38        -7.7560   -0.6750    0.6370 c3        1 MOL     -0.325466
    119 C39        -9.0740   -0.0490    0.3360 ca        1 MOL      0.144939
    120 C40        -9.8690   -0.5420   -0.6650 ca        1 MOL     -0.144499
    121 C41        -9.5550    0.9360    1.1510 ca        1 MOL     -0.144499
    122 C42       -11.1800   -0.0840   -0.8920 ca        1 MOL     -0.123265
    123 C43       -10.8850    1.4750    0.9340 ca        1 MOL     -0.123265
    124 C44       -11.6820    0.9370   -0.0810 ca        1 MOL     -0.145035
    125 H51        -4.6760   -0.5100    0.7310 hn        1 MOL      0.336919
    126 H52        -6.8440    0.4940    2.2310 h1        1 MOL      0.015919
    127 H53        -7.8020   -1.6270    1.1730 hc        1 MOL      0.127799
    128 H54        -7.3500   -0.9700   -0.3300 hc        1 MOL      0.127799
    129 H55        -9.4980   -1.2930   -1.3420 ha        1 MOL      0.108727
    130 H56        -9.0100    1.2800    2.0210 ha        1 MOL      0.108727
    131 H57       -11.8180   -0.5430   -1.6400 ha        1 MOL      0.107106
    132 H58       -11.2170    2.2770    1.5730 ha        1 MOL      0.107106
    133 H59       -12.6450    1.3690   -0.3140 ha        1 MOL      0.106753
    134 N12        -5.4710    2.4650    0.9600 n         1 MOL     -0.025801
    135 C45        -5.0030    3.6270    0.2320 c3        1 MOL     -0.050390
    136 C46        -4.4920    3.3530   -1.1830 c         1 MOL      0.167254
    137 O20        -4.6170    4.2560   -2.0270 o         1 MOL     -0.497944
    138 C47        -3.8460    4.2110    1.0310 c3        1 MOL      0.010654
    139 C48        -4.2320    3.8000    2.4710 c3        1 MOL     -0.090920
    140 C49        -4.8480    2.4010    2.2920 c3        1 MOL     -0.201761
    141 H60        -5.8140    4.3550    0.3080 h1        1 MOL      0.098189
    142 H61        -2.8850    3.7120    0.8810 hc        1 MOL      0.052158
    143 H62        -3.6840    5.2790    0.9970 hc        1 MOL      0.052158
    144 H63        -3.3480    3.9570    3.0840 hc        1 MOL      0.050896
    145 H64        -4.9960    4.4090    2.9560 hc        1 MOL      0.050896
    146 H65        -4.0270    1.6750    2.2440 h1        1 MOL      0.118119
    147 H66        -5.5550    2.1900    3.0970 h1        1 MOL      0.118119
    148 N13        -3.9980    2.2170   -1.5620 n         1 MOL      0.174304
    149 C50        -3.6220    1.9200   -2.9150 c3        1 MOL     -0.291537
    150 C51        -4.8260    1.8470   -3.8440 c         1 MOL      0.454053
    151 O21        -4.8110    2.3230   -4.9880 o         1 MOL     -0.557752
    152 C52        -2.6930    0.7190   -3.0420 c3        1 MOL      0.380693
    153 C53        -1.4800    0.5550   -2.1330 c3        1 MOL     -0.594170
    154 C54        -1.8390    0.3140   -0.6570 c         1 MOL      0.411873
    155 O22        -0.9290    0.2940    0.2000 o         1 MOL     -0.484647
    156 O23        -3.0260    0.0490   -0.3130 o         1 MOL     -0.484647
    157 H67        -3.9610    1.4250   -0.9360 hn        1 MOL      0.148262
    158 H68        -3.0620    2.8220   -3.1940 h1        1 MOL      0.112739
    159 H69        -2.3990    0.8100   -4.0830 hc        1 MOL     -0.056985
    160 H70        -3.2980   -0.1870   -2.9710 hc        1 MOL     -0.056985
    161 H71        -0.8260    1.4300   -2.0850 hc        1 MOL      0.181287
    162 H72        -0.9190   -0.3020   -2.5150 hc        1 MOL      0.181287
    163 N14        -5.9310    1.3130   -3.3910 n         1 MOL     -0.078724
    164 C55        -7.1690    1.3030   -4.1860 c3        1 MOL     -0.278419
    165 H73        -7.7880    0.4590   -3.8840 h1        1 MOL      0.104296
    166 H74        -7.7160    2.2310   -4.0200 h1        1 MOL      0.104296
    167 H75        -6.9210    1.2120   -5.2430 h1        1 MOL      0.104296
    168 H76        -5.8620    0.9360   -2.4540 hn        1 MOL      0.126181
    169 Ca1         0.9810   -0.6800    1.3690 Ca        1 MOL      1.666056
    170 O24         2.6260   -1.3290   -0.5550 oh        1 MOL     -0.864084
    171 H77         3.4250   -1.8540   -0.6160 ho        1 MOL      0.408490
    172 H78         2.2000   -1.4330   -1.4030 ho        1 MOL      0.408490
    173 O25         2.2390   -2.6430    2.5620 oh        1 MOL     -0.864084
    174 H79         1.9950   -3.4080    3.0910 ho        1 MOL      0.408490
    175 H80         3.0630   -2.3420    2.9570 ho        1 MOL      0.408490
    176 O26        -0.3850    1.5820    2.6290 oh        1 MOL     -0.864084
    177 H81        -0.9110    1.4580    1.8440 ho        1 MOL      0.408490
    178 H82        -0.1840    2.5210    2.6330 ho        1 MOL      0.408490
    179 O27         1.7110    1.7210    0.1060 oh        1 MOL     -0.864084
    180 H83         2.6030    1.3970    0.0890 ho        1 MOL      0.408490
    181 H84         1.7520    2.5730   -0.3450 ho        1 MOL      0.408490
@<TRIPOS>BOND
     1    1    2 1   
     2    1    4 1   
     3    1    5 1   
     4    1    6 1   
     5    2    3 2   
     6    2    7 1   
     7    7    8 1   
     8    7   15 1   
     9    8    9 1   
    10    8   11 1   
    11    8   16 1   
    12    9   10 2   
    13    9   19 1   
    14   11   12 1   
    15   11   17 1   
    16   11   18 1   
    17   12   13 1   
    18   12   14 1   
    19   19   20 1   
    20   19   24 1   
    21   20   21 1   
    22   20   23 1   
    23   20   25 1   
    24   21   22 2   
    25   21   29 1   
    26   23   26 1   
    27   23   27 1   
    28   23   28 1   
    29   29   30 1   
    30   29   37 1   
    31   30   31 1   
    32   30   33 1   
    33   30   38 1   
    34   31   32 2   
    35   31   41 1   
    36   33   34 1   
    37   33   39 1   
    38   33   40 1   
    39   34   35 1   
    40   34   36 1   
    41   41   42 1   
    42   41   45 1   
    43   42   43 1   
    44   42   46 1   
    45   42   47 1   
    46   43   44 2   
    47   43   48 1   
    48   48   49 1   
    49   48   56 1   
    50   49   50 1   
    51   49   52 1   
    52   49   57 1   
    53   50   51 2   
    54   50   62 1   
    55   52   53 1   
    56   52   58 1   
    57   52   59 1   
    58   53   54 1   
    59   53   55 2   
    60   54   60 1   
    61   54   61 1   
    62   62   63 1   
    63   62   66 1   
    64   63   64 1   
    65   63   67 1   
    66   63   68 1   
    67   64   65 2   
    68   64   69 1   
    69   69   70 1   
    70   69   76 1   
    71   70   71 1   
    72   70   73 1   
    73   70   77 1   
    74   71   72 2   
    75   71   83 1   
    76   73   74 1   
    77   73   75 1   
    78   73   78 1   
    79   74   80 1   
    80   74   81 1   
    81   74   82 1   
    82   75   79 1   
    83   83   84 1   
    84   83   91 1   
    85   84   85 1   
    86   84   87 1   
    87   84   92 1   
    88   85   86 2   
    89   85  102 1   
    90   87   88 1   
    91   87   89 1   
    92   87   93 1   
    93   88   90 1   
    94   88   94 1   
    95   88   95 1   
    96   89   96 1   
    97   89   97 1   
    98   89   98 1   
    99   90   99 1   
   100   90  100 1   
   101   90  101 1   
   102  102  103 1   
   103  102  110 1   
   104  103  104 1   
   105  103  106 1   
   106  103  111 1   
   107  104  105 2   
   108  104  114 1   
   109  106  107 1   
   110  106  112 1   
   111  106  113 1   
   112  107  108 1   
   113  107  109 1   
   114  114  115 1   
   115  114  125 1   
   116  115  116 1   
   117  115  118 1   
   118  115  126 1   
   119  116  117 2   
   120  116  134 1   
   121  118  119 1   
   122  118  127 1   
   123  118  128 1   
   124  119  120 ar  
   125  119  121 ar  
   126  120  122 ar  
   127  120  129 1   
   128  121  123 ar  
   129  121  130 1   
   130  122  124 ar  
   131  122  131 1   
   132  123  124 ar  
   133  123  132 1   
   134  124  133 1   
   135  134  135 1   
   136  134  140 1   
   137  135  136 1   
   138  135  138 1   
   139  135  141 1   
   140  136  137 2   
   141  136  148 1   
   142  138  139 1   
   143  138  142 1   
   144  138  143 1   
   145  139  140 1   
   146  139  144 1   
   147  139  145 1   
   148  140  146 1   
   149  140  147 1   
   150  148  149 1   
   151  148  157 1   
   152  149  150 1   
   153  149  152 1   
   154  149  158 1   
   155  150  151 2   
   156  150  163 1   
   157  152  153 1   
   158  152  159 1   
   159  152  160 1   
   160  153  154 1   
   161  153  161 1   
   162  153  162 1   
   163  154  155 1   
   164  154  156 1   
   165  163  164 1   
   166  163  168 1   
   167  164  165 1   
   168  164  166 1   
   169  164  167 1   
   170  170  171 1   
   171  170  172 1   
   172  173  174 1   
   173  173  175 1   
   174  176  177 1   
   175  176  178 1   
   176  179  180 1   
   177  179  181 1   
@<TRIPOS>SUBSTRUCTURE
     1 MOL         1 TEMP              0 ****  ****    0 ROOT
