@<TRIPOS>MOLECULE
MOL
  178   175     1     0     0
SMALL
resp


@<TRIPOS>ATOM
      1 C1        -11.6540   -4.3420   -4.9880 c3        1 MOL     -0.219714
      2 C2        -10.8160   -4.8820   -3.7430 c         1 MOL      0.586900
      3 O1        -10.1400   -5.8730   -3.7860 o         1 MOL     -0.578980
      4 H1        -12.5530   -4.9470   -5.1110 hc        1 MOL      0.053332
      5 H2        -11.9360   -3.3040   -4.8150 hc        1 MOL      0.053332
      6 H3        -11.0460   -4.4070   -5.8910 hc        1 MOL      0.053332
      7 N1        -10.8160   -4.2230   -2.6160 n         1 MOL     -0.318884
      8 C3        -11.6900   -3.0990   -2.1600 c3        1 MOL      0.047858
      9 C4        -11.8080   -3.1700   -0.5990 c         1 MOL      0.380839
     10 O2        -11.5460   -4.1800    0.0970 o         1 MOL     -0.475469
     11 C5        -11.2510   -1.6920   -2.6580 c3        1 MOL     -0.170670
     12 C6         -9.9950   -1.0340   -2.0500 c         1 MOL      0.812272
     13 O3         -8.9910   -0.7760   -2.7550 o         1 MOL     -0.761742
     14 O4        -10.0980   -0.5290   -0.9450 o         1 MOL     -0.761742
     15 H4        -10.2290   -4.6400   -1.9070 hn        1 MOL      0.279852
     16 H5        -12.6830   -3.3220   -2.5360 h1        1 MOL      0.053984
     17 H6        -12.0750   -1.0590   -2.3360 hc        1 MOL      0.011107
     18 H7        -11.0960   -1.7830   -3.7320 hc        1 MOL      0.011107
     19 N2        -12.5040   -2.1260   -0.0340 n         1 MOL     -0.402268
     20 C7        -12.6550   -1.9190    1.3850 c3        1 MOL      0.167111
     21 C8        -11.3490   -1.7580    2.2140 c         1 MOL      0.373269
     22 O5        -11.4360   -2.0730    3.4390 o         1 MOL     -0.558164
     23 C9        -13.6170   -3.0490    1.8650 c3        1 MOL     -0.217137
     24 H8        -12.8640   -1.4460   -0.6820 hn        1 MOL      0.285662
     25 H9        -13.1740   -0.9740    1.5010 h1        1 MOL      0.026782
     26 H10       -14.1770   -2.7490    2.7530 hc        1 MOL      0.066130
     27 H11       -14.4060   -3.2500    1.1500 hc        1 MOL      0.066130
     28 H12       -13.2070   -3.9910    2.2480 hc        1 MOL      0.066130
     29 N3        -10.1730   -1.3830    1.6530 n         1 MOL     -0.051204
     30 C10        -8.8550   -1.3520    2.3150 c3        1 MOL     -0.143718
     31 C11        -8.3170    0.0470    2.2550 c         1 MOL      0.530482
     32 O6         -8.7340    0.8780    1.4340 o         1 MOL     -0.599400
     33 C12        -7.9950   -2.4850    1.6970 c3        1 MOL     -0.131665
     34 C13        -7.8720   -2.4090    0.1430 c         1 MOL      0.694645
     35 O7         -8.0040   -3.4780   -0.4830 o         1 MOL     -0.654913
     36 O8         -7.2340   -1.4720   -0.2810 o         1 MOL     -0.654913
     37 H13       -10.1450   -1.1820    0.6730 hn        1 MOL      0.069557
     38 H14        -8.9550   -1.6240    3.3660 h1        1 MOL      0.090044
     39 H15        -8.4990   -3.4100    1.9680 hc        1 MOL      0.065716
     40 H16        -7.0440   -2.6050    2.2060 hc        1 MOL      0.065716
     41 N4         -7.3310    0.3600    3.1280 n         1 MOL     -0.458416
     42 C14        -6.5830    1.6220    3.0750 c3        1 MOL     -0.101177
     43 C15        -5.7630    1.8900    1.8340 c         1 MOL      0.679005
     44 O9         -5.7570    1.2210    0.8920 o         1 MOL     -0.565391
     45 H17        -6.9640   -0.3430    3.7420 hn        1 MOL      0.320437
     46 H18        -5.8690    1.7780    3.8870 h1        1 MOL      0.098628
     47 H19        -7.3100    2.4200    3.2340 h1        1 MOL      0.098628
     48 N5         -5.0400    3.0070    1.8990 n         1 MOL     -0.509933
     49 C16        -4.2360    3.6510    0.8210 c3        1 MOL      0.143510
     50 C17        -3.0040    4.2330    1.3710 c         1 MOL      0.634365
     51 O10        -2.9980    4.7000    2.5060 o         1 MOL     -0.507044
     52 C18        -5.0150    4.7010   -0.0030 c3        1 MOL     -0.233918
     53 C19        -6.3930    4.3090   -0.3670 c         1 MOL      0.854480
     54 N6         -7.3870    4.9020    0.1740 n         1 MOL     -0.876408
     55 O11        -6.6600    3.3340   -0.9970 o         1 MOL     -0.771275
     56 H20        -5.0180    3.5370    2.7590 hn        1 MOL      0.228949
     57 H21        -3.9770    2.8570    0.1100 h1        1 MOL      0.036996
     58 H22        -4.6010    4.8600   -1.0020 hc        1 MOL      0.061593
     59 H23        -4.8700    5.6550    0.5030 hc        1 MOL      0.061593
     60 H24        -7.2430    5.7400    0.7110 hn        1 MOL      0.377674
     61 H25        -8.2470    4.3780    0.1160 hn        1 MOL      0.377674
     62 N7         -1.9470    4.2540    0.5620 n         1 MOL     -0.612054
     63 C20        -0.6490    4.8110    0.8650 c3        1 MOL     -0.010857
     64 C21         0.1740    3.8860    1.8140 c         1 MOL      0.628727
     65 O12        -0.3860    3.0740    2.5600 o         1 MOL     -0.527756
     66 H26        -2.0810    3.9130   -0.3810 hn        1 MOL      0.347025
     67 H27        -0.6600    5.8010    1.3080 h1        1 MOL      0.086015
     68 H28        -0.1830    4.8330   -0.1170 h1        1 MOL      0.086015
     69 N8          1.5260    4.0620    1.7900 n         1 MOL     -0.440409
     70 C22         2.4030    4.9560    1.0030 c3        1 MOL     -0.170258
     71 C23         3.5260    4.1580    0.2560 c         1 MOL      0.688637
     72 O13         4.4540    4.7620   -0.1830 o         1 MOL     -0.543446
     73 C24         2.9300    6.1400    1.8750 c3        1 MOL      0.371520
     74 C25         1.9710    7.2270    2.2640 c3        1 MOL     -0.297269
     75 O14         3.4090    5.7290    3.1250 oh        1 MOL     -0.617419
     76 H29         2.0440    3.5730    2.5050 hn        1 MOL      0.308984
     77 H30         1.8430    5.2690    0.1250 h1        1 MOL      0.088588
     78 H31         3.7640    6.6070    1.3490 h1        1 MOL      0.012217
     79 H32         4.0200    6.4340    3.3580 ho        1 MOL      0.401433
     80 H33         2.5850    8.0910    2.4920 hc        1 MOL      0.065261
     81 H34         1.2320    7.4320    1.4820 hc        1 MOL      0.065261
     82 H35         1.3540    6.9650    3.1330 hc        1 MOL      0.065261
     83 N9          3.3460    2.8390    0.0900 n         1 MOL     -0.478296
     84 C26         4.3210    2.0060   -0.6730 c3        1 MOL     -0.259786
     85 C27         4.4430    2.5870   -2.1170 c         1 MOL      0.774497
     86 O15         3.4220    2.8920   -2.7100 o         1 MOL     -0.612198
     87 C28         3.9120    0.5330   -0.5890 c3        1 MOL      0.106076
     88 C29         3.9610   -0.0210    0.8560 c3        1 MOL      0.026467
     89 C30         4.6860   -0.4420   -1.5300 c3        1 MOL     -0.279675
     90 C31         3.6800   -1.4690    1.0570 c3        1 MOL     -0.301579
     91 H36         2.6610    2.3420    0.6370 hn        1 MOL      0.248341
     92 H37         5.3140    2.1650   -0.2640 h1        1 MOL      0.128325
     93 H38         2.8530    0.4330   -0.8390 hc        1 MOL      0.040556
     94 H39         3.1370    0.4790    1.3720 hc        1 MOL      0.024249
     95 H40         4.9220    0.1940    1.3260 hc        1 MOL      0.024249
     96 H41         5.7470   -0.5120   -1.3030 hc        1 MOL      0.075893
     97 H42         4.2050   -1.4080   -1.3980 hc        1 MOL      0.075893
     98 H43         4.6150   -0.1320   -2.5730 hc        1 MOL      0.075893
     99 H44         3.6560   -1.6880    2.1230 hc        1 MOL      0.081732
    100 H45         2.7060   -1.7690    0.6790 hc        1 MOL      0.081732
    101 H46         4.4820   -2.0750    0.6270 hc        1 MOL      0.081732
    102 N10         5.6310    2.6120   -2.7510 n         1 MOL     -0.818325
    103 C32         6.9220    2.6180   -2.1080 c3        1 MOL      0.940050
    104 C33         7.5920    1.3100   -2.3260 c         1 MOL      0.498712
    105 O16         7.3560    0.6010   -3.3390 o         1 MOL     -0.538258
    106 C34         7.6740    3.8490   -2.5350 c3        1 MOL     -0.412278
    107 C35         7.7240    4.2500   -4.0060 c         1 MOL      0.744913
    108 O17         7.2760    3.4410   -4.7950 o         1 MOL     -0.730599
    109 O18         8.2560    5.3480   -4.4050 o         1 MOL     -0.730599
    110 H47         5.6090    2.9170   -3.7100 hn        1 MOL      0.364829
    111 H48         6.8430    2.7610   -1.0330 h1        1 MOL     -0.161761
    112 H49         8.6810    3.7850   -2.1160 hc        1 MOL      0.027671
    113 H50         7.1730    4.6390   -1.9830 hc        1 MOL      0.027671
    114 N11         8.6220    1.0550   -1.4470 n         1 MOL     -0.857154
    115 C36         9.3670   -0.2390   -1.3900 c3        1 MOL      0.677898
    116 C37        10.1660   -0.2590   -0.1200 c         1 MOL      0.210172
    117 O19        10.5990    0.7990    0.2170 o         1 MOL     -0.519117
    118 C38        10.1950   -0.5830   -2.6350 c3        1 MOL     -0.102299
    119 C39        11.0750   -1.7960   -2.4810 ca        1 MOL      0.044267
    120 C40        12.3610   -1.6930   -1.9100 ca        1 MOL     -0.147190
    121 C41        10.6150   -3.0420   -2.9380 ca        1 MOL     -0.147190
    122 C42        13.1560   -2.8610   -1.7650 ca        1 MOL     -0.087565
    123 C43        11.4560   -4.1650   -2.8970 ca        1 MOL     -0.087565
    124 C44        12.7140   -4.1040   -2.1940 ca        1 MOL     -0.191395
    125 H51         8.7450    1.7180   -0.6980 hn        1 MOL      0.350342
    126 H52         8.6350   -1.0520   -1.2870 h1        1 MOL     -0.100658
    127 H53        10.8040    0.2900   -2.8470 hc        1 MOL      0.049977
    128 H54         9.5040   -0.7470   -3.4610 hc        1 MOL      0.049977
    129 H55        12.6090   -0.7470   -1.4690 ha        1 MOL      0.112482
    130 H56         9.6580   -3.1760   -3.4280 ha        1 MOL      0.112482
    131 H57        14.0600   -2.8190   -1.1750 ha        1 MOL      0.101062
    132 H58        11.1210   -5.1040   -3.3020 ha        1 MOL      0.101062
    133 H59        13.3030   -5.0090   -2.2000 ha        1 MOL      0.117107
    134 N12        10.4940   -1.3550    0.6030 n         1 MOL      0.182957
    135 C45         9.9390   -2.6910    0.4310 c3        1 MOL      0.024867
    136 C46         8.4830   -2.8090    0.9210 c         1 MOL      0.663243
    137 O20         7.7320   -1.8300    0.7180 o         1 MOL     -0.576858
    138 C47        10.9490   -3.5600    1.1950 c3        1 MOL     -0.158395
    139 C48        11.3640   -2.7290    2.3720 c3        1 MOL      0.053525
    140 C49        11.3470   -1.3110    1.7330 c3        1 MOL     -0.304877
    141 H60         9.9630   -3.0090   -0.6160 h1        1 MOL     -0.053790
    142 H61        10.5110   -4.4880    1.5640 hc        1 MOL      0.024965
    143 H62        11.7540   -3.6940    0.4740 hc        1 MOL      0.024965
    144 H63        10.7080   -2.8680    3.2250 hc        1 MOL      0.024471
    145 H64        12.4150   -2.9520    2.5890 hc        1 MOL      0.024471
    146 H65        10.9800   -0.6060    2.4800 h1        1 MOL      0.110384
    147 H66        12.3680   -1.2290    1.3460 h1        1 MOL      0.110384
    148 N13         8.0660   -3.9320    1.4530 n         1 MOL     -0.605974
    149 C50         6.6950   -4.1610    1.9430 c3        1 MOL      0.300484
    150 C51         6.1240   -5.4800    1.4080 c         1 MOL      0.321339
    151 O21         5.5190   -6.1710    2.1740 o         1 MOL     -0.525087
    152 C52         6.6120   -4.0210    3.4800 c3        1 MOL     -0.150820
    153 C53         6.5770   -2.5510    3.9510 c3        1 MOL     -0.021607
    154 C54         6.5030   -2.3400    5.4400 c         1 MOL      0.680919
    155 O22         7.4770   -1.7810    5.9960 o         1 MOL     -0.714301
    156 O23         5.5180   -2.7560    6.0990 o         1 MOL     -0.714301
    157 H67         8.7640   -4.6270    1.6640 hn        1 MOL      0.344850
    158 H68         6.0390   -3.3910    1.5350 h1        1 MOL      0.104006
    159 H69         7.4040   -4.5090    4.0420 hc        1 MOL      0.043501
    160 H70         5.6600   -4.3590    3.8850 hc        1 MOL      0.043501
    161 H71         5.6850   -2.0710    3.5690 hc        1 MOL     -0.017612
    162 H72         7.4750   -2.0450    3.5980 hc        1 MOL     -0.017612
    163 N14         6.0550   -5.8520    0.1330 n         1 MOL     -0.346400
    164 C55         6.4950   -5.2810   -1.1600 c3        1 MOL     -0.112669
    165 H73         5.6630   -5.2940   -1.8640 h1        1 MOL      0.069379
    166 H74         6.8270   -4.2540   -1.0100 h1        1 MOL      0.069379
    167 H75         7.3170   -5.8740   -1.5600 h1        1 MOL      0.069379
    168 H76         5.5380   -6.6960   -0.0420 hn        1 MOL      0.283037
    169 Ca1        -7.7360    0.9430   -1.0860 Ca        1 MOL      1.717267
    170 O24        -9.7310    2.5780   -0.7690 oh        1 MOL     -0.757326
    171 H77       -10.5440    2.5780   -1.2860 ho        1 MOL      0.388672
    172 H78        -9.9060    3.1950   -0.0540 ho        1 MOL      0.388672
    173 O25        -7.0720    1.6590   -3.5860 oh        1 MOL     -0.757326
    174 H79        -7.8900    2.1520   -3.7210 ho        1 MOL      0.388672
    175 H80        -6.4000    2.2060   -3.9940 ho        1 MOL      0.388672
    176 O26        -5.2730    0.2230   -1.7720 oh        1 MOL     -0.757326
    177 H81        -4.8230   -0.2180   -1.0520 ho        1 MOL      0.388672
    178 H82        -4.5700    0.5780   -2.3160 ho        1 MOL      0.388672
@<TRIPOS>BOND
     1    1    2 1   
     2    1    4 1   
     3    1    5 1   
     4    1    6 1   
     5    2    3 2   
     6    2    7 1   
     7    7    8 1   
     8    7   15 1   
     9    8    9 1   
    10    8   11 1   
    11    8   16 1   
    12    9   10 2   
    13    9   19 1   
    14   11   12 1   
    15   11   17 1   
    16   11   18 1   
    17   12   13 1   
    18   12   14 1   
    19   19   20 1   
    20   19   24 1   
    21   20   21 1   
    22   20   23 1   
    23   20   25 1   
    24   21   22 2   
    25   21   29 1   
    26   23   26 1   
    27   23   27 1   
    28   23   28 1   
    29   29   30 1   
    30   29   37 1   
    31   30   31 1   
    32   30   33 1   
    33   30   38 1   
    34   31   32 2   
    35   31   41 1   
    36   33   34 1   
    37   33   39 1   
    38   33   40 1   
    39   34   35 1   
    40   34   36 1   
    41   41   42 1   
    42   41   45 1   
    43   42   43 1   
    44   42   46 1   
    45   42   47 1   
    46   43   44 2   
    47   43   48 1   
    48   48   49 1   
    49   48   56 1   
    50   49   50 1   
    51   49   52 1   
    52   49   57 1   
    53   50   51 2   
    54   50   62 1   
    55   52   53 1   
    56   52   58 1   
    57   52   59 1   
    58   53   54 1   
    59   53   55 2   
    60   54   60 1   
    61   54   61 1   
    62   62   63 1   
    63   62   66 1   
    64   63   64 1   
    65   63   67 1   
    66   63   68 1   
    67   64   65 2   
    68   64   69 1   
    69   69   70 1   
    70   69   76 1   
    71   70   71 1   
    72   70   73 1   
    73   70   77 1   
    74   71   72 2   
    75   71   83 1   
    76   73   74 1   
    77   73   75 1   
    78   73   78 1   
    79   74   80 1   
    80   74   81 1   
    81   74   82 1   
    82   75   79 1   
    83   83   84 1   
    84   83   91 1   
    85   84   85 1   
    86   84   87 1   
    87   84   92 1   
    88   85   86 2   
    89   85  102 1   
    90   87   88 1   
    91   87   89 1   
    92   87   93 1   
    93   88   90 1   
    94   88   94 1   
    95   88   95 1   
    96   89   96 1   
    97   89   97 1   
    98   89   98 1   
    99   90   99 1   
   100   90  100 1   
   101   90  101 1   
   102  102  103 1   
   103  102  110 1   
   104  103  104 1   
   105  103  106 1   
   106  103  111 1   
   107  104  105 2   
   108  104  114 1   
   109  106  107 1   
   110  106  112 1   
   111  106  113 1   
   112  107  108 1   
   113  107  109 1   
   114  114  115 1   
   115  114  125 1   
   116  115  116 1   
   117  115  118 1   
   118  115  126 1   
   119  116  117 2   
   120  116  134 1   
   121  118  119 1   
   122  118  127 1   
   123  118  128 1   
   124  119  120 ar  
   125  119  121 ar  
   126  120  122 ar  
   127  120  129 1   
   128  121  123 ar  
   129  121  130 1   
   130  122  124 ar  
   131  122  131 1   
   132  123  124 ar  
   133  123  132 1   
   134  124  133 1   
   135  134  135 1   
   136  134  140 1   
   137  135  136 1   
   138  135  138 1   
   139  135  141 1   
   140  136  137 2   
   141  136  148 1   
   142  138  139 1   
   143  138  142 1   
   144  138  143 1   
   145  139  140 1   
   146  139  144 1   
   147  139  145 1   
   148  140  146 1   
   149  140  147 1   
   150  148  149 1   
   151  148  157 1   
   152  149  150 1   
   153  149  152 1   
   154  149  158 1   
   155  150  151 2   
   156  150  163 1   
   157  152  153 1   
   158  152  159 1   
   159  152  160 1   
   160  153  154 1   
   161  153  161 1   
   162  153  162 1   
   163  154  155 1   
   164  154  156 1   
   165  163  164 1   
   166  163  168 1   
   167  164  165 1   
   168  164  166 1   
   169  164  167 1   
   170  170  171 1   
   171  170  172 1   
   172  173  174 1   
   173  173  175 1   
   174  176  177 1   
   175  176  178 1   
@<TRIPOS>SUBSTRUCTURE
     1 MOL         1 TEMP              0 ****  ****    0 ROOT
