@<TRIPOS>MOLECULE
MOL
  192   187     1     0     0
SMALL
resp


@<TRIPOS>ATOM
      1 C1         12.0480    6.6090   -1.1410 c3        1 MOL     -0.361210
      2 C2         11.8020    5.0860   -0.8840 c         1 MOL      0.605658
      3 O1         12.8020    4.3350   -0.9210 o         1 MOL     -0.556398
      4 H1         12.8430    6.7290   -1.8780 hc        1 MOL      0.097735
      5 H2         11.1330    7.0680   -1.5170 hc        1 MOL      0.097735
      6 H3         12.3410    7.0940   -0.2100 hc        1 MOL      0.097735
      7 N1         10.5810    4.6750   -0.5850 n         1 MOL     -0.239223
      8 C3         10.2590    3.2920   -0.1780 c3        1 MOL     -0.232769
      9 C4          9.0130    2.7380   -0.7550 c         1 MOL      0.626358
     10 O2          7.9400    3.4030   -0.8570 o         1 MOL     -0.598750
     11 C5         10.2930    3.0150    1.3330 c3        1 MOL      0.045659
     12 C6          9.6720    4.1690    2.1750 c         1 MOL      0.600749
     13 O3          8.8560    4.9400    1.6240 o         1 MOL     -0.653015
     14 O4         10.0830    4.3730    3.3490 o         1 MOL     -0.653015
     15 H4          9.7860    5.2950   -0.4920 hn        1 MOL      0.115259
     16 H5         11.0540    2.6330   -0.5620 h1        1 MOL      0.074060
     17 H6         11.3280    2.8510    1.6460 hc        1 MOL      0.033987
     18 H7          9.8760    2.0240    1.5190 hc        1 MOL      0.033987
     19 N2          9.1710    1.4800   -1.2000 n         1 MOL     -0.607144
     20 C7          8.0990    0.6160   -1.6510 c3        1 MOL      0.145990
     21 C8          7.3570   -0.0570   -0.4820 c         1 MOL      0.540743
     22 O5          8.0100   -0.7080    0.3300 o         1 MOL     -0.522022
     23 C9          8.6600   -0.3030   -2.7130 c3        1 MOL     -0.160997
     24 C10         7.5830   -1.2940   -3.2650 c3        1 MOL     -0.224918
     25 C11         7.7640   -2.7380   -2.7940 c3        1 MOL      0.068960
     26 C12         6.6320   -3.6190   -3.3910 c3        1 MOL     -0.051895
     27 N3          6.7900   -5.0210   -3.0520 n4        1 MOL     -0.101003
     28 H8         10.0550    1.0600   -0.9460 hn        1 MOL      0.365259
     29 H9          7.3580    1.1760   -2.2200 h1        1 MOL      0.081412
     30 H10         9.5200   -0.8260   -2.3050 hc        1 MOL      0.081237
     31 H11         8.9690    0.3000   -3.5760 hc        1 MOL      0.081237
     32 H12         7.8260   -1.2010   -4.3180 hc        1 MOL      0.100343
     33 H13         6.5760   -0.9380   -3.0630 hc        1 MOL      0.100343
     34 H14         7.8220   -2.8380   -1.7130 hc        1 MOL      0.034752
     35 H15         8.6590   -3.0780   -3.3020 hc        1 MOL      0.034752
     36 H16         6.7980   -3.5750   -4.4630 hx        1 MOL      0.062103
     37 H17         5.6410   -3.2800   -3.0750 hx        1 MOL      0.062103
     38 H18         7.6990   -5.3700   -2.7700 hn        1 MOL      0.261745
     39 H19         6.1950   -5.1180   -2.2300 hn        1 MOL      0.261745
     40 H20         6.2910   -5.5840   -3.7170 hn        1 MOL      0.261745
     41 N4          5.9940    0.0750   -0.4150 n         1 MOL     -0.407612
     42 C13         5.2640   -0.2120    0.8090 c3        1 MOL     -0.004004
     43 C14         3.7160   -0.2620    0.6030 c         1 MOL      0.444543
     44 O6          3.2750    0.1950   -0.4260 o         1 MOL     -0.548461
     45 C15         5.4640    0.8480    1.9060 c3        1 MOL     -0.244874
     46 C16         5.8540    2.1900    1.4160 c         1 MOL      0.975357
     47 O7          6.4090    2.9950    2.2070 o         1 MOL     -0.821941
     48 O8          5.3980    2.6610    0.3650 o         1 MOL     -0.821941
     49 H21         5.4980    0.6570   -1.0770 hn        1 MOL      0.242418
     50 H22         5.4320   -1.2190    1.2080 h1        1 MOL      0.108035
     51 H23         6.3580    0.5830    2.4630 hc        1 MOL      0.073958
     52 H24         4.6300    0.8470    2.6070 hc        1 MOL      0.073958
     53 N5          2.9400   -0.8190    1.4490 n         1 MOL     -0.308064
     54 C17         3.3040   -1.6330    2.5910 c3        1 MOL     -0.166003
     55 C18         3.6110   -3.0850    2.3450 c         1 MOL      0.718208
     56 O9          3.9760   -3.3030    1.2500 o         1 MOL     -0.596835
     57 H25         1.9560   -0.7350    1.2410 hn        1 MOL      0.300394
     58 H26         2.4870   -1.6320    3.3100 h1        1 MOL      0.088467
     59 H27         4.1230   -1.1580    3.1410 h1        1 MOL      0.088467
     60 N6          3.5240   -4.0720    3.2580 n         1 MOL     -0.512656
     61 C19         4.0510   -5.4010    3.0650 c3        1 MOL      0.162065
     62 C20         3.1110   -6.1690    2.1860 c         1 MOL      0.322512
     63 O10         3.5840   -6.9020    1.2950 o         1 MOL     -0.552888
     64 C21         4.2560   -6.2130    4.3390 c3        1 MOL     -0.374688
     65 C22         3.0120   -6.2050    5.1910 c         1 MOL      0.720942
     66 O11         2.6830   -5.1710    5.8380 o         1 MOL     -0.702043
     67 O12         2.1680   -7.1400    5.0450 o         1 MOL     -0.702043
     68 H28         2.9540   -3.8880    4.0760 hn        1 MOL      0.243405
     69 H29         4.9350   -5.2620    2.4430 h1        1 MOL      0.067840
     70 H30         5.1830   -5.8700    4.8050 hc        1 MOL      0.100742
     71 H31         4.5170   -7.2470    4.1250 hc        1 MOL      0.100742
     72 N7          1.7790   -6.0070    2.2520 n         1 MOL     -0.002900
     73 C23         0.7970   -6.6150    1.2960 c3        1 MOL     -0.428855
     74 C24         0.7540   -5.9530   -0.0940 c         1 MOL      0.649847
     75 O13         0.3910   -6.5980   -1.0450 o         1 MOL     -0.558330
     76 H32         1.4720   -5.3860    2.9930 hn        1 MOL      0.209089
     77 H33        -0.1870   -6.5070    1.7600 h1        1 MOL      0.172872
     78 H34         1.1560   -7.6420    1.1970 h1        1 MOL      0.172872
     79 N8          0.9710   -4.6170   -0.0990 n         1 MOL     -0.309547
     80 C25         0.8240   -3.8520   -1.3980 c3        1 MOL      0.016431
     81 C26         0.2850   -2.4260   -1.1520 c         1 MOL      0.407263
     82 O14         0.2280   -1.9760    0.0200 o         1 MOL     -0.456890
     83 C27         2.1460   -3.7120   -2.1430 c3        1 MOL      0.182713
     84 C28         3.0400   -4.9550   -2.0920 c3        1 MOL     -0.462640
     85 O15         1.9180   -3.4150   -3.5020 oh        1 MOL     -0.626270
     86 H35         1.1620   -4.1470    0.7760 hn        1 MOL      0.176283
     87 H36         0.1680   -4.3910   -2.0800 h1        1 MOL      0.066368
     88 H37         2.7170   -2.8590   -1.7760 h1        1 MOL      0.144804
     89 H38         1.6430   -4.2380   -3.9090 ho        1 MOL      0.400173
     90 H39         3.3710   -5.3240   -1.1260 hc        1 MOL      0.131115
     91 H40         2.5430   -5.8520   -2.4670 hc        1 MOL      0.131115
     92 H41         3.8770   -4.6420   -2.7250 hc        1 MOL      0.131115
     93 N9         -0.1960   -1.7100   -2.1700 n         1 MOL     -0.386229
     94 C29        -0.9300   -0.4480   -2.0190 c3        1 MOL     -0.101962
     95 C30        -2.2610   -0.6860   -1.2600 c         1 MOL      0.538866
     96 O16        -2.4430   -0.0080   -0.2430 o         1 MOL     -0.511936
     97 C31        -1.1080    0.4460   -3.3130 c3        1 MOL      0.273061
     98 C32         0.2090    0.4960   -4.1770 c3        1 MOL     -0.031239
     99 C33        -1.5240    1.8560   -3.0360 c3        1 MOL     -0.231211
    100 C34         0.3540    1.3620   -5.4430 c3        1 MOL     -0.244494
    101 H42        -0.0480   -2.0000   -3.1280 hn        1 MOL      0.268706
    102 H43        -0.4040    0.2530   -1.3670 h1        1 MOL      0.089434
    103 H44        -1.8760    0.0160   -3.9490 hc        1 MOL     -0.046831
    104 H45         0.4540   -0.5260   -4.4810 hc        1 MOL      0.025684
    105 H46         1.0130    0.8210   -3.5070 hc        1 MOL      0.025684
    106 H47        -2.2540    1.8960   -2.2280 hc        1 MOL      0.060475
    107 H48        -0.6110    2.3950   -2.7750 hc        1 MOL      0.060475
    108 H49        -1.8130    2.3370   -3.9740 hc        1 MOL      0.060475
    109 H50         0.1320    2.3790   -5.1440 hc        1 MOL      0.066713
    110 H51         1.3970    1.3920   -5.7400 hc        1 MOL      0.066713
    111 H52        -0.2210    1.0140   -6.3020 hc        1 MOL      0.066713
    112 N10        -3.1230   -1.6530   -1.6420 n         1 MOL     -0.464893
    113 C35        -4.2800   -1.9860   -0.8670 c3        1 MOL      0.066390
    114 C36        -5.5240   -2.1170   -1.8030 c         1 MOL      0.573386
    115 O17        -5.4750   -2.3050   -2.9960 o         1 MOL     -0.520103
    116 C37        -4.1000   -3.2570    0.0190 c3        1 MOL      0.485053
    117 C38        -2.9480   -3.1410    1.0590 c3        1 MOL     -0.288277
    118 O18        -5.2890   -3.6550    0.6010 oh        1 MOL     -0.673446
    119 H53        -2.9680   -2.1930   -2.4770 hn        1 MOL      0.254325
    120 H54        -4.4470   -1.1530   -0.1810 h1        1 MOL      0.063232
    121 H55        -3.8330   -4.0020   -0.7310 h1        1 MOL     -0.069421
    122 H56        -5.4010   -4.5980    0.4840 ho        1 MOL      0.391063
    123 H57        -2.0070   -3.2490    0.5150 hc        1 MOL      0.080001
    124 H58        -3.1090   -2.2780    1.7060 hc        1 MOL      0.080001
    125 H59        -2.9770   -3.9870    1.7380 hc        1 MOL      0.080001
    126 N11        -6.7220   -2.0000   -1.1950 n         1 MOL     -0.638181
    127 C39        -8.0020   -2.3210   -1.7400 c3        1 MOL      0.096980
    128 C40        -9.0230   -1.1650   -1.8030 c         1 MOL      0.749575
    129 O19        -9.5760   -0.9440   -2.8240 o         1 MOL     -0.576003
    130 C41        -8.5910   -3.5170   -0.9650 c3        1 MOL      0.263819
    131 C42        -9.9030   -4.0380   -1.4650 c3        1 MOL     -0.367182
    132 O20        -8.7330   -3.2010    0.4070 oh        1 MOL     -0.650067
    133 H60        -6.7090   -1.8780   -0.1900 hn        1 MOL      0.335590
    134 H61        -7.8550   -2.6830   -2.7550 h1        1 MOL      0.067605
    135 H62        -7.8930   -4.3500   -1.0450 h1        1 MOL      0.031988
    136 H63        -8.4880   -4.0020    0.8830 ho        1 MOL      0.430303
    137 H64       -10.6490   -3.2610   -1.3360 hc        1 MOL      0.093457
    138 H65        -9.8880   -4.1790   -2.5410 hc        1 MOL      0.093457
    139 H66       -10.1030   -4.9920   -0.9690 hc        1 MOL      0.093457
    140 N12        -9.1840   -0.3860   -0.6440 n         1 MOL     -0.612277
    141 C43       -10.0340    0.8170   -0.3190 c3        1 MOL      0.151330
    142 C44        -9.3870    1.6520    0.7790 c         1 MOL      0.229156
    143 O21        -8.8280    1.0770    1.7390 o         1 MOL     -0.458263
    144 C45       -11.3780    0.3130    0.2180 c3        1 MOL     -0.020359
    145 C46       -12.5200    1.3260    0.0650 c3        1 MOL     -0.142531
    146 C47       -13.8360    0.7430    0.6160 c3        1 MOL      0.134962
    147 C48       -15.0210    1.6570    0.4170 c3        1 MOL      0.134832
    148 N13       -16.2510    1.0320    0.8730 n4        1 MOL     -0.373402
    149 H67        -8.6690   -0.8370    0.0990 hn        1 MOL      0.289158
    150 H68       -10.2090    1.4850   -1.1630 h1        1 MOL      0.054167
    151 H69       -11.2450    0.0480    1.2690 hc        1 MOL      0.068708
    152 H70       -11.6800   -0.6260   -0.2430 hc        1 MOL      0.068708
    153 H71       -12.7140    1.4800   -1.0020 hc        1 MOL      0.002540
    154 H72       -12.3220    2.2290    0.6380 hc        1 MOL      0.002540
    155 H73       -13.6080    0.5720    1.6630 hc        1 MOL     -0.022781
    156 H74       -14.0240   -0.2520    0.2080 hc        1 MOL     -0.022781
    157 H75       -15.1060    2.1380   -0.5600 hx        1 MOL      0.060389
    158 H76       -14.9490    2.4830    1.1180 hx        1 MOL      0.060389
    159 H77       -17.0740    1.5490    0.5850 hn        1 MOL      0.295122
    160 H78       -16.3170    0.1050    0.4680 hn        1 MOL      0.295122
    161 H79       -16.2120    0.9690    1.8820 hn        1 MOL      0.295122
    162 N14        -9.4640    2.9560    0.6630 n         1 MOL     -0.106489
    163 C49        -9.0170    3.9630    1.6480 c3        1 MOL      0.136954
    164 C50        -7.4840    3.7990    1.8390 c         1 MOL      0.393573
    165 O22        -7.0070    3.5640    2.9810 o         1 MOL     -0.527474
    166 C51        -9.5190    5.3540    1.2450 c3        1 MOL      0.036630
    167 C52       -11.0420    5.5570    1.4330 c3        1 MOL     -0.170747
    168 C53       -11.4850    6.7950    0.7910 c         1 MOL      0.618406
    169 O23       -10.7280    7.8070    0.8260 o         1 MOL     -0.666671
    170 O24       -12.7140    6.8850    0.4640 o         1 MOL     -0.666671
    171 H80        -9.9480    3.1850   -0.1960 hn        1 MOL      0.197748
    172 H81        -9.4890    3.7530    2.6030 h1        1 MOL      0.026385
    173 H82        -9.3440    5.4590    0.1770 hc        1 MOL      0.026879
    174 H83        -8.9770    6.1410    1.7650 hc        1 MOL      0.026879
    175 H84       -11.2620    5.5810    2.5030 hc        1 MOL      0.031962
    176 H85       -11.6330    4.7180    1.0610 hc        1 MOL      0.031962
    177 N15        -6.6510    3.8040    0.8050 n         1 MOL     -0.337813
    178 C54        -6.8100    4.4670   -0.4950 c3        1 MOL      0.023932
    179 H86        -5.8850    4.3790   -1.0640 h1        1 MOL      0.021830
    180 H87        -7.6220    3.9960   -1.0470 h1        1 MOL      0.021830
    181 H88        -7.0410    5.5220   -0.3390 h1        1 MOL      0.021830
    182 H89        -5.7210    3.4890    1.0270 hn        1 MOL      0.288112
    183 Ca1         6.4310    5.0440    0.5000 Ca        1 MOL      1.711522
    184 O25         5.1520    4.8710   -1.9540 oh        1 MOL     -0.814201
    185 H90         5.0450    5.0120   -2.8980 ho        1 MOL      0.409220
    186 H91         4.2600    4.8160   -1.6230 ho        1 MOL      0.409220
    187 O26         3.6660    5.2880    0.6340 oh        1 MOL     -0.814201
    188 H92         3.2340    5.2730   -0.2210 ho        1 MOL      0.409220
    189 H93         3.4350    4.4570    1.0390 ho        1 MOL      0.409220
    190 O27         6.4760    6.8140    2.8170 oh        1 MOL     -0.814201
    191 H94         6.0170    7.1490    3.5880 ho        1 MOL      0.409220
    192 H95         7.3330    7.2450    2.8340 ho        1 MOL      0.409220
@<TRIPOS>BOND
     1    1    2 1   
     2    1    4 1   
     3    1    5 1   
     4    1    6 1   
     5    2    3 2   
     6    2    7 1   
     7    7    8 1   
     8    7   15 1   
     9    8    9 1   
    10    8   11 1   
    11    8   16 1   
    12    9   10 2   
    13    9   19 1   
    14   11   12 1   
    15   11   17 1   
    16   11   18 1   
    17   12   13 1   
    18   12   14 1   
    19   19   20 1   
    20   19   28 1   
    21   20   21 1   
    22   20   23 1   
    23   20   29 1   
    24   21   22 2   
    25   21   41 1   
    26   23   24 1   
    27   23   30 1   
    28   23   31 1   
    29   24   25 1   
    30   24   32 1   
    31   24   33 1   
    32   25   26 1   
    33   25   34 1   
    34   25   35 1   
    35   26   27 1   
    36   26   36 1   
    37   26   37 1   
    38   27   38 1   
    39   27   39 1   
    40   27   40 1   
    41   41   42 1   
    42   41   49 1   
    43   42   43 1   
    44   42   45 1   
    45   42   50 1   
    46   43   44 2   
    47   43   53 1   
    48   45   46 1   
    49   45   51 1   
    50   45   52 1   
    51   46   47 1   
    52   46   48 1   
    53   53   54 1   
    54   53   57 1   
    55   54   55 1   
    56   54   58 1   
    57   54   59 1   
    58   55   56 2   
    59   55   60 1   
    60   60   61 1   
    61   60   68 1   
    62   61   62 1   
    63   61   64 1   
    64   61   69 1   
    65   62   63 2   
    66   62   72 1   
    67   64   65 1   
    68   64   70 1   
    69   64   71 1   
    70   65   66 1   
    71   65   67 1   
    72   72   73 1   
    73   72   76 1   
    74   73   74 1   
    75   73   77 1   
    76   73   78 1   
    77   74   75 2   
    78   74   79 1   
    79   79   80 1   
    80   79   86 1   
    81   80   81 1   
    82   80   83 1   
    83   80   87 1   
    84   81   82 2   
    85   81   93 1   
    86   83   84 1   
    87   83   85 1   
    88   83   88 1   
    89   84   90 1   
    90   84   91 1   
    91   84   92 1   
    92   85   89 1   
    93   93   94 1   
    94   93  101 1   
    95   94   95 1   
    96   94   97 1   
    97   94  102 1   
    98   95   96 2   
    99   95  112 1   
   100   97   98 1   
   101   97   99 1   
   102   97  103 1   
   103   98  100 1   
   104   98  104 1   
   105   98  105 1   
   106   99  106 1   
   107   99  107 1   
   108   99  108 1   
   109  100  109 1   
   110  100  110 1   
   111  100  111 1   
   112  112  113 1   
   113  112  119 1   
   114  113  114 1   
   115  113  116 1   
   116  113  120 1   
   117  114  115 2   
   118  114  126 1   
   119  116  117 1   
   120  116  118 1   
   121  116  121 1   
   122  117  123 1   
   123  117  124 1   
   124  117  125 1   
   125  118  122 1   
   126  126  127 1   
   127  126  133 1   
   128  127  128 1   
   129  127  130 1   
   130  127  134 1   
   131  128  129 2   
   132  128  140 1   
   133  130  131 1   
   134  130  132 1   
   135  130  135 1   
   136  131  137 1   
   137  131  138 1   
   138  131  139 1   
   139  132  136 1   
   140  140  141 1   
   141  140  149 1   
   142  141  142 1   
   143  141  144 1   
   144  141  150 1   
   145  142  143 2   
   146  142  162 1   
   147  144  145 1   
   148  144  151 1   
   149  144  152 1   
   150  145  146 1   
   151  145  153 1   
   152  145  154 1   
   153  146  147 1   
   154  146  155 1   
   155  146  156 1   
   156  147  148 1   
   157  147  157 1   
   158  147  158 1   
   159  148  159 1   
   160  148  160 1   
   161  148  161 1   
   162  162  163 1   
   163  162  171 1   
   164  163  164 1   
   165  163  166 1   
   166  163  172 1   
   167  164  165 2   
   168  164  177 1   
   169  166  167 1   
   170  166  173 1   
   171  166  174 1   
   172  167  168 1   
   173  167  175 1   
   174  167  176 1   
   175  168  169 1   
   176  168  170 1   
   177  177  178 1   
   178  177  182 1   
   179  178  179 1   
   180  178  180 1   
   181  178  181 1   
   182  184  185 1   
   183  184  186 1   
   184  187  188 1   
   185  187  189 1   
   186  190  191 1   
   187  190  192 1   
@<TRIPOS>SUBSTRUCTURE
     1 MOL         1 TEMP              0 ****  ****    0 ROOT
