@<TRIPOS>MOLECULE
MOL
  181   177     1     0     0
SMALL
resp


@<TRIPOS>ATOM
      1 C1          3.4500   -2.3830    4.2410 c3        1 MOL     -0.251824
      2 C2          4.5070   -1.4360    3.8380 c         1 MOL      0.679599
      3 O1          4.2640   -0.3900    3.2800 o         1 MOL     -0.612149
      4 H1          3.7830   -2.9510    5.1090 hc        1 MOL      0.058013
      5 H2          2.5440   -1.8310    4.4940 hc        1 MOL      0.058013
      6 H3          3.2420   -3.0670    3.4190 hc        1 MOL      0.058013
      7 N1          5.7200   -1.8280    3.8270 n         1 MOL     -0.518741
      8 C3          6.7890   -1.0270    3.2200 c3        1 MOL      0.160094
      9 C4          6.7790   -1.1230    1.6600 c         1 MOL      0.760489
     10 O2          6.4440   -2.1630    1.0600 o         1 MOL     -0.679455
     11 C5          8.1450   -1.5410    3.7130 c3        1 MOL     -0.250311
     12 C6          9.1450   -0.4620    3.3960 c         1 MOL      0.695495
     13 O3          9.1370    0.6460    4.0040 o         1 MOL     -0.724009
     14 O4          9.9400   -0.6940    2.4380 o         1 MOL     -0.724009
     15 H4          6.0460   -2.7120    4.2120 hn        1 MOL      0.278866
     16 H5          6.7040    0.0090    3.5340 h1        1 MOL      0.047540
     17 H6          8.4100   -2.4970    3.2670 hc        1 MOL      0.023723
     18 H7          8.0430   -1.5820    4.7960 hc        1 MOL      0.023723
     19 N2          6.9710    0.0060    0.9960 n         1 MOL     -0.721394
     20 C7          6.7640    0.1520   -0.4230 c3        1 MOL      0.685242
     21 C8          5.3170    0.3970   -0.8580 c         1 MOL      0.140316
     22 O5          4.5040    0.9090   -0.1040 o         1 MOL     -0.440880
     23 C9          7.6860    1.2750   -1.0170 c3        1 MOL     -0.353880
     24 H8          7.1120    0.8560    1.5330 hn        1 MOL      0.335615
     25 H9          7.1380   -0.7660   -0.8830 h1        1 MOL     -0.065121
     26 H10         7.2140    2.2480   -0.8780 hc        1 MOL      0.083170
     27 H11         8.6390    1.2670   -0.4830 hc        1 MOL      0.083170
     28 H12         7.7250    1.0840   -2.0860 hc        1 MOL      0.083170
     29 N3          5.0540    0.0990   -2.1500 n         1 MOL     -0.183488
     30 C10         3.9840    0.6590   -2.8750 c3        1 MOL     -0.280098
     31 C11         4.3250    2.1500   -3.2300 c         1 MOL      0.781970
     32 O6          5.4400    2.6330   -3.0370 o         1 MOL     -0.580536
     33 C12         3.6910   -0.0860   -4.1740 c3        1 MOL     -0.050188
     34 C13         3.8530   -1.6550   -4.0270 c         1 MOL      0.689140
     35 O7          4.7930   -2.2030   -4.6680 o         1 MOL     -0.712665
     36 O8          2.9450   -2.2980   -3.4210 o         1 MOL     -0.712665
     37 H13         5.8030   -0.2800   -2.7160 hn        1 MOL      0.233843
     38 H14         3.1340    0.8280   -2.2130 h1        1 MOL      0.132133
     39 H15         4.3300    0.3920   -4.9150 hc        1 MOL      0.003668
     40 H16         2.7550    0.2660   -4.6060 hc        1 MOL      0.003668
     41 N4          3.3420    2.8630   -3.6830 n         1 MOL     -0.615194
     42 C14         3.5540    4.3060   -3.9470 c3        1 MOL      0.081636
     43 C15         2.3220    5.2350   -3.7890 c         1 MOL      0.414373
     44 O9          2.4460    6.3450   -4.2860 o         1 MOL     -0.544114
     45 H17         2.5090    2.4120   -4.0380 hn        1 MOL      0.351160
     46 H18         3.9210    4.4490   -4.9600 h1        1 MOL      0.064248
     47 H19         4.3430    4.7210   -3.3190 h1        1 MOL      0.064248
     48 N5          1.2160    4.8250   -3.2110 n         1 MOL     -0.294120
     49 C16         0.0060    5.6350   -2.9790 c3        1 MOL     -0.018385
     50 C17        -0.3390    5.7790   -1.4570 c         1 MOL      0.430944
     51 O10        -1.2420    6.5650   -1.2250 o         1 MOL     -0.492094
     52 C18        -1.2150    5.0730   -3.7180 c3        1 MOL     -0.205824
     53 C19        -0.9680    4.4950   -5.1570 c         1 MOL      0.503648
     54 N6         -0.0640    5.1240   -5.9140 n         1 MOL     -0.622277
     55 O11        -1.5700    3.4970   -5.5790 o         1 MOL     -0.511616
     56 H20         1.1370    3.8990   -2.8050 hn        1 MOL      0.239145
     57 H21         0.2560    6.6110   -3.4110 h1        1 MOL      0.103131
     58 H22        -1.9010    5.9070   -3.7700 hc        1 MOL      0.108526
     59 H23        -1.6430    4.3470   -3.0110 hc        1 MOL      0.108526
     60 H24         0.3780    5.9860   -5.6130 hn        1 MOL      0.318066
     61 H25        -0.2290    4.9110   -6.8920 hn        1 MOL      0.318066
     62 N7          0.4260    5.2930   -0.4760 n         1 MOL     -0.271764
     63 C20         0.2420    5.3970    0.9950 c3        1 MOL     -0.217480
     64 C21        -1.1870    5.1070    1.3720 c         1 MOL      0.519048
     65 O12        -1.8540    4.3450    0.6810 o         1 MOL     -0.411330
     66 H26         1.2060    4.7140   -0.7610 hn        1 MOL      0.252085
     67 H27         0.5270    6.3700    1.3830 h1        1 MOL      0.125128
     68 H28         0.8040    4.5770    1.4480 h1        1 MOL      0.125128
     69 N8         -1.6250    5.5880    2.5400 n         1 MOL     -0.348233
     70 C22        -2.9730    5.3560    3.0060 c3        1 MOL     -0.224839
     71 C23        -3.2530    3.8760    3.3740 c         1 MOL      0.432293
     72 O13        -4.3790    3.3990    3.4420 o         1 MOL     -0.567832
     73 C24        -3.3660    6.2200    4.2050 c3        1 MOL      0.261878
     74 C25        -2.4820    5.8790    5.4100 c3        1 MOL     -0.240154
     75 O14        -3.4700    7.5800    3.9730 oh        1 MOL     -0.568659
     76 H29        -1.1510    6.3290    3.0330 hn        1 MOL      0.251530
     77 H30        -3.5950    5.5750    2.1340 h1        1 MOL      0.181756
     78 H31        -4.3840    5.9390    4.4650 h1        1 MOL      0.098001
     79 H32        -2.5640    7.8870    3.9920 ho        1 MOL      0.372209
     80 H33        -1.4250    5.7420    5.1670 hc        1 MOL      0.052330
     81 H34        -2.5400    6.6200    6.2140 hc        1 MOL      0.052330
     82 H35        -2.6860    4.9490    5.9310 hc        1 MOL      0.052330
     83 N9         -2.2890    3.0940    3.8470 n         1 MOL     -0.056165
     84 C26        -2.2480    1.6540    3.8190 c3        1 MOL      0.132349
     85 C27        -1.5780    1.1750    2.5060 c         1 MOL      0.120644
     86 O15        -0.5670    1.5910    2.0100 o         1 MOL     -0.433821
     87 C28        -1.6300    1.0910    5.1240 c3        1 MOL      0.117914
     88 C29        -2.6050    0.8740    6.2770 c3        1 MOL     -0.108028
     89 C30        -0.9680   -0.2410    4.8580 c3        1 MOL     -0.213186
     90 C31        -3.1740    2.2460    6.7590 c3        1 MOL      0.031177
     91 H36        -1.3920    3.5410    3.9600 hn        1 MOL      0.101740
     92 H37        -3.2690    1.2740    3.7600 h1        1 MOL      0.060736
     93 H38        -0.9030    1.7640    5.5570 hc        1 MOL      0.033473
     94 H39        -2.0060    0.4650    7.0960 hc        1 MOL      0.012764
     95 H40        -3.4510    0.2410    6.0080 hc        1 MOL      0.012764
     96 H41        -0.4960   -0.5870    5.7720 hc        1 MOL      0.061648
     97 H42        -1.6480   -1.0270    4.5540 hc        1 MOL      0.061648
     98 H43        -0.1970   -0.1590    4.0870 hc        1 MOL      0.061648
     99 H44        -3.8490    2.7080    6.0500 hc        1 MOL     -0.011551
    100 H45        -3.7980    2.0000    7.6220 hc        1 MOL     -0.011551
    101 H46        -2.3620    2.9140    7.0650 hc        1 MOL     -0.011551
    102 N10        -2.1980    0.1610    1.9300 n         1 MOL     -0.175058
    103 C32        -1.6700   -0.5600    0.7740 c3        1 MOL      0.221963
    104 C33        -2.7900   -0.9310   -0.2480 c         1 MOL      0.349441
    105 O16        -2.5970   -1.7860   -1.1390 o         1 MOL     -0.443872
    106 C34        -0.8740   -1.7460    1.3630 c3        1 MOL     -0.083816
    107 C35         0.1700   -2.2880    0.4430 c         1 MOL      0.818072
    108 O17         0.5270   -1.6490   -0.5410 o         1 MOL     -0.750998
    109 O18         0.6670   -3.3890    0.7250 o         1 MOL     -0.750998
    110 H47        -3.0860   -0.1020    2.3220 hn        1 MOL      0.180251
    111 H48        -0.9160    0.0600    0.2720 h1        1 MOL      0.082544
    112 H49        -1.5270   -2.5610    1.6760 hc        1 MOL     -0.021403
    113 H50        -0.3460   -1.3020    2.2110 hc        1 MOL     -0.021403
    114 N11        -3.9630   -0.2600   -0.2130 n         1 MOL     -0.485682
    115 C36        -5.0680   -0.6280   -1.0590 c3        1 MOL      0.480500
    116 C37        -5.7470   -2.0160   -0.6680 c         1 MOL      0.044803
    117 O19        -5.9660   -2.1930    0.5550 o         1 MOL     -0.487623
    118 C38        -6.1450    0.4640   -0.9890 c3        1 MOL     -0.170533
    119 C39        -5.7150    1.8560   -1.4630 ca        1 MOL      0.051916
    120 C40        -5.5350    2.0860   -2.8780 ca        1 MOL     -0.161821
    121 C41        -5.4480    2.8860   -0.5030 ca        1 MOL     -0.161821
    122 C42        -5.0840    3.3680   -3.2590 ca        1 MOL     -0.130985
    123 C43        -4.9820    4.1440   -0.9420 ca        1 MOL     -0.130985
    124 C44        -4.8200    4.3360   -2.2910 ca        1 MOL     -0.060053
    125 H51        -3.9620    0.6000    0.3290 hn        1 MOL      0.252118
    126 H52        -4.7110   -0.7140   -2.0870 h1        1 MOL     -0.030313
    127 H53        -6.4540    0.5090    0.0600 hc        1 MOL      0.053747
    128 H54        -6.9910    0.1320   -1.5920 hc        1 MOL      0.053747
    129 H55        -5.5870    1.2360   -3.5580 ha        1 MOL      0.123660
    130 H56        -5.5720    2.7440    0.5550 ha        1 MOL      0.123660
    131 H57        -4.9380    3.6200   -4.2980 ha        1 MOL      0.110248
    132 H58        -4.6520    4.9510   -0.2960 ha        1 MOL      0.110248
    133 H59        -4.4590    5.2810   -2.6910 ha        1 MOL      0.077562
    134 N12        -6.0400   -2.9130   -1.5950 n         1 MOL      0.135036
    135 C45        -6.7000   -4.2220   -1.3260 c3        1 MOL     -0.071459
    136 C46        -5.7630   -5.1810   -0.5790 c         1 MOL      0.398594
    137 O20        -6.3550   -6.1370   -0.1030 o         1 MOL     -0.526599
    138 C47        -7.1520   -4.7160   -2.6690 c3        1 MOL     -0.043987
    139 C48        -6.3330   -3.9780   -3.7300 c3        1 MOL      0.019380
    140 C49        -5.7880   -2.7720   -3.0020 c3        1 MOL     -0.123284
    141 H60        -7.4710   -3.8860   -0.6290 h1        1 MOL      0.083993
    142 H61        -7.0090   -5.7750   -2.8770 hc        1 MOL      0.037553
    143 H62        -8.2220   -4.5190   -2.7320 hc        1 MOL      0.037553
    144 H63        -5.5190   -4.6020   -4.0970 hc        1 MOL      0.022983
    145 H64        -7.0020   -3.7370   -4.5650 hc        1 MOL      0.022983
    146 H65        -4.6940   -2.7550   -3.0570 h1        1 MOL      0.036258
    147 H66        -6.2310   -1.8250   -3.3210 h1        1 MOL      0.036258
    148 N13        -4.4500   -4.9490   -0.5470 n         1 MOL     -0.225023
    149 C50        -3.5480   -5.9220    0.0780 c3        1 MOL     -0.245340
    150 C51        -3.7210   -5.9860    1.5410 c         1 MOL      0.417245
    151 O21        -3.3970   -7.0320    2.0820 o         1 MOL     -0.523830
    152 C52        -2.0580   -5.6020   -0.2220 c3        1 MOL      0.203631
    153 C53        -1.6580   -5.7110   -1.6550 c3        1 MOL     -0.214826
    154 C54        -0.1720   -5.3460   -1.9270 c         1 MOL      0.628465
    155 O22         0.1150   -4.2040   -2.4370 o         1 MOL     -0.715653
    156 O23         0.7430   -5.9880   -1.3520 o         1 MOL     -0.715653
    157 H67        -4.1070   -4.3260   -1.2690 hn        1 MOL      0.322742
    158 H68        -3.7780   -6.9100   -0.3310 h1        1 MOL      0.138985
    159 H69        -1.4570   -6.3050    0.3600 hc        1 MOL      0.016575
    160 H70        -1.8770   -4.6230    0.2280 hc        1 MOL      0.016575
    161 H71        -2.4160   -5.1630   -2.2040 hc        1 MOL      0.022431
    162 H72        -1.8380   -6.7410   -1.9710 hc        1 MOL      0.022431
    163 N14        -4.1260   -4.9020    2.2300 n         1 MOL     -0.094634
    164 C55        -3.9960   -4.8960    3.6860 c3        1 MOL     -0.230978
    165 H73        -3.5140   -5.8170    4.0120 h1        1 MOL      0.084584
    166 H74        -3.3920   -4.0420    3.9930 h1        1 MOL      0.084584
    167 H75        -4.9840   -4.8240    4.1390 h1        1 MOL      0.084584
    168 H76        -4.5840   -4.0890    1.8620 hn        1 MOL      0.185588
    169 Ca1         2.3730   -3.7260   -1.2550 Ca        1 MOL      1.743533
    170 O24         3.6430   -5.7280   -2.7310 oh        1 MOL     -0.816092
    171 H77         3.5950   -5.5980   -3.6820 ho        1 MOL      0.399777
    172 H78         4.4380   -6.2360   -2.5910 ho        1 MOL      0.399777
    173 O25         3.6250   -5.2290    0.6860 oh        1 MOL     -0.816092
    174 H79         3.2380   -5.9910    1.1070 ho        1 MOL      0.399777
    175 H80         4.5340   -5.2180    0.9750 ho        1 MOL      0.399777
    176 O26         5.2400   -3.0230   -1.2020 oh        1 MOL     -0.816092
    177 H81         5.8690   -3.7120   -1.4520 ho        1 MOL      0.399777
    178 H82         5.6070   -2.6380   -0.4010 ho        1 MOL      0.399777
    179 O27         3.1470   -1.4850    0.2540 oh        1 MOL     -0.816092
    180 H83         3.1000   -0.5950   -0.1050 ho        1 MOL      0.399777
    181 H84         3.8270   -1.4360    0.9260 ho        1 MOL      0.399777
@<TRIPOS>BOND
     1    1    2 1   
     2    1    4 1   
     3    1    5 1   
     4    1    6 1   
     5    2    3 2   
     6    2    7 1   
     7    7    8 1   
     8    7   15 1   
     9    8    9 1   
    10    8   11 1   
    11    8   16 1   
    12    9   10 2   
    13    9   19 1   
    14   11   12 1   
    15   11   17 1   
    16   11   18 1   
    17   12   13 1   
    18   12   14 1   
    19   19   20 1   
    20   19   24 1   
    21   20   21 1   
    22   20   23 1   
    23   20   25 1   
    24   21   22 2   
    25   21   29 1   
    26   23   26 1   
    27   23   27 1   
    28   23   28 1   
    29   29   30 1   
    30   29   37 1   
    31   30   31 1   
    32   30   33 1   
    33   30   38 1   
    34   31   32 2   
    35   31   41 1   
    36   33   34 1   
    37   33   39 1   
    38   33   40 1   
    39   34   35 1   
    40   34   36 1   
    41   41   42 1   
    42   41   45 1   
    43   42   43 1   
    44   42   46 1   
    45   42   47 1   
    46   43   44 2   
    47   43   48 1   
    48   48   49 1   
    49   48   56 1   
    50   49   50 1   
    51   49   52 1   
    52   49   57 1   
    53   50   51 2   
    54   50   62 1   
    55   52   53 1   
    56   52   58 1   
    57   52   59 1   
    58   53   54 1   
    59   53   55 2   
    60   54   60 1   
    61   54   61 1   
    62   62   63 1   
    63   62   66 1   
    64   63   64 1   
    65   63   67 1   
    66   63   68 1   
    67   64   65 2   
    68   64   69 1   
    69   69   70 1   
    70   69   76 1   
    71   70   71 1   
    72   70   73 1   
    73   70   77 1   
    74   71   72 2   
    75   71   83 1   
    76   73   74 1   
    77   73   75 1   
    78   73   78 1   
    79   74   80 1   
    80   74   81 1   
    81   74   82 1   
    82   75   79 1   
    83   83   84 1   
    84   83   91 1   
    85   84   85 1   
    86   84   87 1   
    87   84   92 1   
    88   85   86 2   
    89   85  102 1   
    90   87   88 1   
    91   87   89 1   
    92   87   93 1   
    93   88   90 1   
    94   88   94 1   
    95   88   95 1   
    96   89   96 1   
    97   89   97 1   
    98   89   98 1   
    99   90   99 1   
   100   90  100 1   
   101   90  101 1   
   102  102  103 1   
   103  102  110 1   
   104  103  104 1   
   105  103  106 1   
   106  103  111 1   
   107  104  105 2   
   108  104  114 1   
   109  106  107 1   
   110  106  112 1   
   111  106  113 1   
   112  107  108 1   
   113  107  109 1   
   114  114  115 1   
   115  114  125 1   
   116  115  116 1   
   117  115  118 1   
   118  115  126 1   
   119  116  117 2   
   120  116  134 1   
   121  118  119 1   
   122  118  127 1   
   123  118  128 1   
   124  119  120 ar  
   125  119  121 ar  
   126  120  122 ar  
   127  120  129 1   
   128  121  123 ar  
   129  121  130 1   
   130  122  124 ar  
   131  122  131 1   
   132  123  124 ar  
   133  123  132 1   
   134  124  133 1   
   135  134  135 1   
   136  134  140 1   
   137  135  136 1   
   138  135  138 1   
   139  135  141 1   
   140  136  137 2   
   141  136  148 1   
   142  138  139 1   
   143  138  142 1   
   144  138  143 1   
   145  139  140 1   
   146  139  144 1   
   147  139  145 1   
   148  140  146 1   
   149  140  147 1   
   150  148  149 1   
   151  148  157 1   
   152  149  150 1   
   153  149  152 1   
   154  149  158 1   
   155  150  151 2   
   156  150  163 1   
   157  152  153 1   
   158  152  159 1   
   159  152  160 1   
   160  153  154 1   
   161  153  161 1   
   162  153  162 1   
   163  154  155 1   
   164  154  156 1   
   165  163  164 1   
   166  163  168 1   
   167  164  165 1   
   168  164  166 1   
   169  164  167 1   
   170  170  171 1   
   171  170  172 1   
   172  173  174 1   
   173  173  175 1   
   174  176  177 1   
   175  176  178 1   
   176  179  180 1   
   177  179  181 1   
@<TRIPOS>SUBSTRUCTURE
     1 MOL         1 TEMP              0 ****  ****    0 ROOT
