@<TRIPOS>MOLECULE
MOL
  182   178     1     0     0
SMALL
resp


@<TRIPOS>ATOM
      1 C1          2.0010    4.0790    5.5110 c3        1 MOL     -0.312132
      2 C2          1.6280    3.9660    4.0480 c         1 MOL      0.590918
      3 O1          2.4780    4.1780    3.1420 o         1 MOL     -0.571962
      4 H1          1.5180    3.2780    6.0710 hc        1 MOL      0.085310
      5 H2          3.0830    3.9940    5.6190 hc        1 MOL      0.085310
      6 H3          1.6720    5.0430    5.8980 hc        1 MOL      0.085310
      7 N1          0.4090    3.6080    3.7800 n         1 MOL     -0.369562
      8 C3         -0.1930    3.2150    2.5310 c3        1 MOL     -0.189262
      9 C4         -0.9000    4.4030    1.8250 c         1 MOL      0.551952
     10 O2         -1.9020    4.9210    2.2790 o         1 MOL     -0.505312
     11 C5         -1.2940    2.1750    2.8790 c3        1 MOL     -0.103748
     12 C6         -2.0150    1.6390    1.6470 c         1 MOL      0.572597
     13 O3         -3.0610    0.9860    1.7470 o         1 MOL     -0.698965
     14 O4         -1.3770    1.7100    0.5370 o         1 MOL     -0.698965
     15 H4         -0.2220    3.5670    4.5710 hn        1 MOL      0.277693
     16 H5          0.6200    2.8630    1.8870 h1        1 MOL      0.064454
     17 H6         -2.0440    2.7200    3.4670 hc        1 MOL      0.065126
     18 H7         -0.8940    1.3370    3.4250 hc        1 MOL      0.065126
     19 N2         -0.3020    4.7780    0.6940 n         1 MOL     -0.337410
     20 C7         -0.7470    5.9910   -0.0300 c3        1 MOL      0.180830
     21 C8         -2.0270    5.8330   -0.8810 c         1 MOL      0.238378
     22 O5         -2.8670    6.7520   -0.9180 o         1 MOL     -0.502258
     23 C9          0.5330    6.5830   -0.7420 c3        1 MOL     -0.188419
     24 C10         0.2750    7.9950   -1.2450 c3        1 MOL      0.160501
     25 C11         1.3610    8.6620   -2.1180 c3        1 MOL     -0.178724
     26 C12         0.8060   10.0550   -2.4710 c3        1 MOL      0.021473
     27 N3          1.4420   11.1600   -1.6980 n4        1 MOL     -0.334886
     28 H8          0.4880    4.2350    0.3860 hn        1 MOL      0.281537
     29 H9         -1.0230    6.7840    0.6660 h1        1 MOL      0.067415
     30 H10         0.8020    5.9400   -1.5760 hc        1 MOL      0.055403
     31 H11         1.2760    6.6440    0.0520 hc        1 MOL      0.055403
     32 H12         0.0720    8.6720   -0.4110 hc        1 MOL     -0.007429
     33 H13        -0.6930    8.0060   -1.7500 hc        1 MOL     -0.007429
     34 H14         1.4090    8.0740   -3.0400 hc        1 MOL      0.087371
     35 H15         2.3180    8.7970   -1.6210 hc        1 MOL      0.087371
     36 H16        -0.2440    9.9830   -2.1830 hx        1 MOL      0.101114
     37 H17         0.8520   10.1890   -3.5500 hx        1 MOL      0.101114
     38 H18         1.2290   10.9850   -0.7250 hn        1 MOL      0.280156
     39 H19         2.4510   11.2040   -1.7230 hn        1 MOL      0.280156
     40 H20         1.0700   12.0710   -1.9170 hn        1 MOL      0.280156
     41 N4         -2.2210    4.6860   -1.5920 n         1 MOL     -0.190154
     42 C13        -3.5390    4.4140   -2.2910 c3        1 MOL     -0.084610
     43 C14        -4.6490    4.1190   -1.2610 c         1 MOL      0.426235
     44 O6         -5.8090    4.2450   -1.5960 o         1 MOL     -0.535889
     45 C15        -3.4100    3.2900   -3.2840 c3        1 MOL     -0.283099
     46 C16        -2.9940    1.9610   -2.6780 c         1 MOL      0.696820
     47 O7         -3.6390    1.4570   -1.7320 o         1 MOL     -0.728062
     48 O8         -1.9130    1.4160   -3.0570 o         1 MOL     -0.728062
     49 H21        -1.4930    3.9870   -1.5040 hn        1 MOL      0.187439
     50 H22        -3.8230    5.3040   -2.8570 h1        1 MOL      0.140246
     51 H23        -2.7200    3.6360   -4.0480 hc        1 MOL      0.097140
     52 H24        -4.3250    3.1420   -3.8450 hc        1 MOL      0.097140
     53 N5         -4.2540    3.8830   -0.0040 n         1 MOL      0.150253
     54 C17        -5.2430    3.5840    1.0140 c3        1 MOL     -0.475439
     55 C18        -6.2480    2.4360    0.6770 c         1 MOL      0.605662
     56 O9         -7.3120    2.3480    1.3070 o         1 MOL     -0.573622
     57 H25        -3.2710    3.8950    0.2490 hn        1 MOL      0.054470
     58 H26        -5.8700    4.4720    1.0910 h1        1 MOL      0.176227
     59 H27        -4.6740    3.2490    1.8790 h1        1 MOL      0.176227
     60 N6         -5.8520    1.4280   -0.0890 n         1 MOL     -0.249706
     61 C19        -6.6500    0.2160   -0.5110 c3        1 MOL     -0.029022
     62 C20        -5.8370   -1.0630   -0.7240 c         1 MOL      0.592167
     63 O10        -4.6220   -1.0560   -0.7390 o         1 MOL     -0.520065
     64 C21        -7.4750    0.6740   -1.8090 c3        1 MOL     -0.339724
     65 C22        -8.0530   -0.3930   -2.6820 c         1 MOL      0.699437
     66 N7         -7.3840   -0.7510   -3.7650 n         1 MOL     -0.767436
     67 O11        -9.0670   -1.0280   -2.3680 o         1 MOL     -0.586608
     68 H28        -4.9080    1.4720   -0.4450 hn        1 MOL      0.269836
     69 H29        -7.4210    0.0370    0.2360 h1        1 MOL      0.090864
     70 H30        -6.8140    1.2660   -2.4510 hc        1 MOL      0.119469
     71 H31        -8.2450    1.3760   -1.4720 hc        1 MOL      0.119469
     72 H32        -6.4420   -0.4140   -3.8570 hn        1 MOL      0.348655
     73 H33        -7.6000   -1.6490   -4.1640 hn        1 MOL      0.348655
     74 N8         -6.5370   -2.1620   -0.8930 n         1 MOL     -0.497311
     75 C23        -5.8940   -3.4310   -1.2870 c3        1 MOL      0.053654
     76 C24        -4.9190   -3.9410   -0.2110 c         1 MOL      0.582864
     77 O12        -5.2270   -3.7160    1.0010 o         1 MOL     -0.511716
     78 H34        -7.5330   -2.1410   -0.7130 hn        1 MOL      0.339037
     79 H35        -5.4080   -3.2780   -2.2540 h1        1 MOL      0.031818
     80 H36        -6.5570   -4.2870   -1.4310 h1        1 MOL      0.031818
     81 N9         -3.8340   -4.5860   -0.5600 n         1 MOL     -0.640330
     82 C25        -2.6970   -4.8740    0.3600 c3        1 MOL      0.328811
     83 C26        -2.1760   -3.6320    1.0300 c         1 MOL      0.437907
     84 O13        -2.4940   -2.5770    0.6160 o         1 MOL     -0.455532
     85 C27        -1.5650   -5.7010   -0.2410 c3        1 MOL     -0.132045
     86 C28        -2.0340   -7.0360   -0.6200 ca        1 MOL      0.183162
     87 C29        -2.3150   -8.0030    0.3670 ca        1 MOL     -0.243808
     88 C30        -2.1780   -7.3900   -1.9550 ca        1 MOL     -0.243808
     89 C31        -2.6680   -9.3240   -0.0090 ca        1 MOL     -0.216973
     90 C32        -2.5100   -8.6710   -2.3240 ca        1 MOL     -0.216973
     91 C33        -2.8020   -9.6800   -1.3740 ca        1 MOL      0.309941
     92 O14        -3.1850  -10.8970   -1.7990 oh        1 MOL     -0.450513
     93 H37        -3.7470   -4.8270   -1.5380 hn        1 MOL      0.291332
     94 H38        -3.1220   -5.4610    1.1770 h1        1 MOL      0.026717
     95 H39        -0.7490   -5.7820    0.4750 hc        1 MOL      0.016585
     96 H40        -1.2440   -5.1080   -1.0940 hc        1 MOL      0.016585
     97 H41        -2.2760   -7.8200    1.4310 ha        1 MOL      0.147294
     98 H42        -1.9820   -6.6240   -2.6970 ha        1 MOL      0.147294
     99 H43        -2.9620  -10.0680    0.7140 ha        1 MOL      0.145332
    100 H44        -2.6960   -8.9520   -3.3470 ha        1 MOL      0.145332
    101 H45        -3.2850  -10.9240   -2.7550 ho        1 MOL      0.352158
    102 N10        -1.4000   -3.8230    2.0850 n         1 MOL     -0.567001
    103 C34        -0.7720   -2.7910    3.0230 c3        1 MOL      0.237708
    104 C35        -0.0340   -1.5600    2.4390 c         1 MOL      0.057102
    105 O15        -0.4050   -0.9860    1.4370 o         1 MOL     -0.307829
    106 C36        -1.9120   -2.1920    3.9440 c3        1 MOL      0.226818
    107 C37        -1.4210   -1.4050    5.1710 c3        1 MOL     -0.404697
    108 C38        -2.9620   -3.1880    4.4540 c3        1 MOL     -0.103624
    109 C39        -0.6460   -2.2050    6.2270 c3        1 MOL     -0.135911
    110 H46        -1.1560   -4.7520    2.3960 hn        1 MOL      0.303540
    111 H47        -0.1310   -3.3570    3.7090 h1        1 MOL      0.004313
    112 H48        -2.3740   -1.4390    3.3190 hc        1 MOL      0.062640
    113 H49        -2.2840   -1.1050    5.7720 hc        1 MOL      0.134914
    114 H50        -0.8630   -0.5300    4.8650 hc        1 MOL      0.134914
    115 H51        -3.4920   -3.5610    3.5780 hc        1 MOL      0.027900
    116 H52        -2.4600   -4.0560    4.8870 hc        1 MOL      0.027900
    117 H53        -3.6690   -2.6560    5.0980 hc        1 MOL      0.027900
    118 H54        -0.3230   -1.5450    7.0400 hc        1 MOL      0.045406
    119 H55        -1.2570   -2.9480    6.7360 hc        1 MOL      0.045406
    120 H56         0.3180   -2.5580    5.8470 hc        1 MOL      0.045406
    121 N11         1.0670   -1.1680    3.0800 n         1 MOL     -0.105459
    122 C40         1.7470   -0.0030    2.7430 c3        1 MOL     -0.033337
    123 C41         2.8910   -0.0440    1.6230 c         1 MOL      0.450354
    124 O16         3.2230    0.9760    1.0760 o         1 MOL     -0.512820
    125 C42         2.3100    0.5990    3.9800 c3        1 MOL      0.124875
    126 O17         2.7500   -0.3530    4.9710 oh        1 MOL     -0.655914
    127 H57         1.5430   -1.7150    3.7870 hn        1 MOL      0.255114
    128 H58         1.0520    0.7210    2.3220 h1        1 MOL      0.103130
    129 H59         1.6490    1.3020    4.4880 h1        1 MOL      0.062808
    130 H60         3.2120    1.1850    3.7980 h1        1 MOL      0.062808
    131 H61         3.6230   -0.0710    5.2460 ho        1 MOL      0.416996
    132 N12         3.3980   -1.1990    1.3640 n         1 MOL     -0.317667
    133 C43         4.4170   -1.4710    0.2350 c3        1 MOL      0.026612
    134 C44         3.8910   -1.6710   -1.2310 c         1 MOL      0.677921
    135 O18         2.6930   -1.9190   -1.3620 o         1 MOL     -0.584526
    136 C45         5.3130   -2.5620    0.7510 c3        1 MOL     -0.172861
    137 H62         3.1420   -1.9650    1.9750 hn        1 MOL      0.201074
    138 H63         4.9780   -0.5410    0.1980 h1        1 MOL      0.102774
    139 H64         6.0690   -2.8760    0.0310 hc        1 MOL      0.060783
    140 H65         5.9190   -2.2070    1.5850 hc        1 MOL      0.060783
    141 H66         4.8410   -3.4520    1.1720 hc        1 MOL      0.060783
    142 N13         4.7600   -1.5590   -2.2670 n         1 MOL     -0.637693
    143 C46         6.1930   -1.2770   -2.1940 c3        1 MOL      0.096605
    144 C47         7.1620   -2.4850   -2.2980 c         1 MOL      0.706336
    145 O19         6.7770   -3.5620   -2.7850 o         1 MOL     -0.611905
    146 C48         6.4650   -0.2730   -3.3280 c3        1 MOL     -0.221908
    147 H67         4.3940   -1.7480   -3.1880 hn        1 MOL      0.354001
    148 H68         6.4840   -0.8410   -1.2340 h1        1 MOL      0.090680
    149 H69         7.5150   -0.0240   -3.5020 hc        1 MOL      0.086974
    150 H70         6.1820   -0.6710   -4.3080 hc        1 MOL      0.086974
    151 H71         5.9550    0.6810   -3.2120 hc        1 MOL      0.086974
    152 N14         8.4640   -2.4320   -2.0380 n         1 MOL     -0.658017
    153 C49         9.2440   -1.3570   -1.4070 c3        1 MOL     -0.048414
    154 C50         9.7530   -1.8600   -0.0610 c         1 MOL      0.628654
    155 O20         9.5630   -1.1550    0.9500 o         1 MOL     -0.546519
    156 C51        10.4610   -1.0450   -2.2840 c3        1 MOL      0.000877
    157 C52        11.3040    0.1670   -1.8130 c3        1 MOL     -0.204864
    158 C53        10.6160    1.5700   -1.7840 c         1 MOL      0.711805
    159 O21        11.2860    2.5390   -1.2770 o         1 MOL     -0.655915
    160 O22         9.4340    1.7840   -2.2240 o         1 MOL     -0.655915
    161 H72         8.9990   -3.2370   -2.3240 hn        1 MOL      0.327628
    162 H73         8.6260   -0.4590   -1.2910 h1        1 MOL      0.077466
    163 H74        10.2040   -0.6850   -3.2800 hc        1 MOL      0.017475
    164 H75        11.1170   -1.9100   -2.3220 hc        1 MOL      0.017475
    165 H76        12.1450    0.2700   -2.4990 hc        1 MOL      0.041258
    166 H77        11.6710    0.0410   -0.7900 hc        1 MOL      0.041258
    167 N15        10.3180   -3.0480    0.0220 n         1 MOL     -0.367594
    168 C54        10.7170   -3.5970    1.3710 c3        1 MOL     -0.362079
    169 H78         9.8460   -4.0400    1.8540 h1        1 MOL      0.154139
    170 H79        11.4850   -4.3590    1.2400 h1        1 MOL      0.154139
    171 H80        11.1060   -2.7900    1.9910 h1        1 MOL      0.154139
    172 H81        10.3630   -3.5670   -0.8490 hn        1 MOL      0.284284
    173 Ca1        -1.9300   -0.2630   -0.9090 Ca        1 MOL      1.729569
    174 O23         0.6300    0.5770   -1.1190 oh        1 MOL     -0.818483
    175 H82         1.2480    0.7410   -1.8260 ho        1 MOL      0.405212
    176 H83         0.8590    1.2060   -0.4360 ho        1 MOL      0.405212
    177 O24        -2.6980   -1.6410   -3.1330 oh        1 MOL     -0.818483
    178 H84        -2.9370   -2.5280   -3.3730 ho        1 MOL      0.405212
    179 H85        -2.5590   -1.1930   -3.9720 ho        1 MOL      0.405212
    180 O25        -0.0080   -2.2150   -1.7230 oh        1 MOL     -0.818483
    181 H86        -0.1860   -2.9620   -2.2980 ho        1 MOL      0.405212
    182 H87         0.8000   -2.4340   -1.2780 ho        1 MOL      0.405212
@<TRIPOS>BOND
     1    1    2 1   
     2    1    4 1   
     3    1    5 1   
     4    1    6 1   
     5    2    3 2   
     6    2    7 1   
     7    7    8 1   
     8    7   15 1   
     9    8    9 1   
    10    8   11 1   
    11    8   16 1   
    12    9   10 2   
    13    9   19 1   
    14   11   12 1   
    15   11   17 1   
    16   11   18 1   
    17   12   13 1   
    18   12   14 1   
    19   19   20 1   
    20   19   28 1   
    21   20   21 1   
    22   20   23 1   
    23   20   29 1   
    24   21   22 2   
    25   21   41 1   
    26   23   24 1   
    27   23   30 1   
    28   23   31 1   
    29   24   25 1   
    30   24   32 1   
    31   24   33 1   
    32   25   26 1   
    33   25   34 1   
    34   25   35 1   
    35   26   27 1   
    36   26   36 1   
    37   26   37 1   
    38   27   38 1   
    39   27   39 1   
    40   27   40 1   
    41   41   42 1   
    42   41   49 1   
    43   42   43 1   
    44   42   45 1   
    45   42   50 1   
    46   43   44 2   
    47   43   53 1   
    48   45   46 1   
    49   45   51 1   
    50   45   52 1   
    51   46   47 1   
    52   46   48 1   
    53   53   54 1   
    54   53   57 1   
    55   54   55 1   
    56   54   58 1   
    57   54   59 1   
    58   55   56 2   
    59   55   60 1   
    60   60   61 1   
    61   60   68 1   
    62   61   62 1   
    63   61   64 1   
    64   61   69 1   
    65   62   63 2   
    66   62   74 1   
    67   64   65 1   
    68   64   70 1   
    69   64   71 1   
    70   65   66 1   
    71   65   67 2   
    72   66   72 1   
    73   66   73 1   
    74   74   75 1   
    75   74   78 1   
    76   75   76 1   
    77   75   79 1   
    78   75   80 1   
    79   76   77 2   
    80   76   81 1   
    81   81   82 1   
    82   81   93 1   
    83   82   83 1   
    84   82   85 1   
    85   82   94 1   
    86   83   84 2   
    87   83  102 1   
    88   85   86 1   
    89   85   95 1   
    90   85   96 1   
    91   86   87 ar  
    92   86   88 ar  
    93   87   89 ar  
    94   87   97 1   
    95   88   90 ar  
    96   88   98 1   
    97   89   91 ar  
    98   89   99 1   
    99   90   91 ar  
   100   90  100 1   
   101   91   92 1   
   102   92  101 1   
   103  102  103 1   
   104  102  110 1   
   105  103  104 1   
   106  103  106 1   
   107  103  111 1   
   108  104  105 2   
   109  104  121 1   
   110  106  107 1   
   111  106  108 1   
   112  106  112 1   
   113  107  109 1   
   114  107  113 1   
   115  107  114 1   
   116  108  115 1   
   117  108  116 1   
   118  108  117 1   
   119  109  118 1   
   120  109  119 1   
   121  109  120 1   
   122  121  122 1   
   123  121  127 1   
   124  122  123 1   
   125  122  125 1   
   126  122  128 1   
   127  123  124 2   
   128  123  132 1   
   129  125  126 1   
   130  125  129 1   
   131  125  130 1   
   132  126  131 1   
   133  132  133 1   
   134  132  137 1   
   135  133  134 1   
   136  133  136 1   
   137  133  138 1   
   138  134  135 2   
   139  134  142 1   
   140  136  139 1   
   141  136  140 1   
   142  136  141 1   
   143  142  143 1   
   144  142  147 1   
   145  143  144 1   
   146  143  146 1   
   147  143  148 1   
   148  144  145 2   
   149  144  152 1   
   150  146  149 1   
   151  146  150 1   
   152  146  151 1   
   153  152  153 1   
   154  152  161 1   
   155  153  154 1   
   156  153  156 1   
   157  153  162 1   
   158  154  155 2   
   159  154  167 1   
   160  156  157 1   
   161  156  163 1   
   162  156  164 1   
   163  157  158 1   
   164  157  165 1   
   165  157  166 1   
   166  158  159 1   
   167  158  160 1   
   168  167  168 1   
   169  167  172 1   
   170  168  169 1   
   171  168  170 1   
   172  168  171 1   
   173  174  175 1   
   174  174  176 1   
   175  177  178 1   
   176  177  179 1   
   177  180  181 1   
   178  180  182 1   
@<TRIPOS>SUBSTRUCTURE
     1 MOL         1 TEMP              0 ****  ****    0 ROOT
