@<TRIPOS>MOLECULE
MOL
  179   176     1     0     0
SMALL
resp


@<TRIPOS>ATOM
      1 C1          1.7670   -4.1400    6.4720 c3        1 MOL     -0.398433
      2 C2          1.8330   -4.0560    4.9150 c         1 MOL      0.747192
      3 O1          1.0280   -4.6420    4.2340 o         1 MOL     -0.570613
      4 H1          1.5860   -5.1720    6.7720 hc        1 MOL      0.102585
      5 H2          2.7130   -3.8000    6.8950 hc        1 MOL      0.102585
      6 H3          0.9570   -3.5090    6.8370 hc        1 MOL      0.102585
      7 N1          2.8170   -3.3010    4.3640 n         1 MOL     -0.547623
      8 C3          2.9750   -3.0890    2.8780 c3        1 MOL     -0.148141
      9 C4          3.4560   -4.3230    2.0690 c         1 MOL      0.664040
     10 O2          4.2970   -5.0870    2.5180 o         1 MOL     -0.558232
     11 C5          3.8520   -1.8260    2.7320 c3        1 MOL      0.396578
     12 C6          3.8370   -1.0790    1.4300 c         1 MOL      0.210401
     13 O3          4.2140    0.0710    1.3530 o         1 MOL     -0.564632
     14 O4          3.5040   -1.6540    0.3230 o         1 MOL     -0.564632
     15 H4          3.4590   -2.8630    5.0020 hn        1 MOL      0.284423
     16 H5          1.9890   -2.7510    2.5430 h1        1 MOL      0.035587
     17 H6          4.8900   -2.1090    2.8890 hc        1 MOL     -0.055592
     18 H7          3.6290   -1.0500    3.4690 hc        1 MOL     -0.055592
     19 N2          3.1010   -4.3700    0.7870 n         1 MOL     -0.338731
     20 C7          3.5110   -5.4010   -0.1740 c3        1 MOL     -0.011310
     21 C8          4.6540   -4.9580   -1.1600 c         1 MOL      0.546826
     22 O5          5.3210   -5.7350   -1.7970 o         1 MOL     -0.556042
     23 C9          2.2790   -6.0500   -0.8430 c3        1 MOL     -0.051399
     24 C10         1.7000   -5.1330   -1.9440 c3        1 MOL     -0.192273
     25 C11         0.4220   -5.6330   -2.5300 c3        1 MOL      0.047206
     26 C12        -0.1900   -4.6090   -3.5340 c3        1 MOL      0.033989
     27 N3         -1.5150   -4.9910   -4.1860 n4        1 MOL     -0.287166
     28 H8          2.3510   -3.7610    0.4660 hn        1 MOL      0.041053
     29 H9          4.0270   -6.2300    0.2990 h1        1 MOL      0.108582
     30 H10         1.4790   -6.2970   -0.1490 hc        1 MOL      0.060233
     31 H11         2.7110   -6.9780   -1.2050 hc        1 MOL      0.060233
     32 H12         2.3160   -5.0450   -2.8400 hc        1 MOL      0.103552
     33 H13         1.4660   -4.1470   -1.5490 hc        1 MOL      0.103552
     34 H14        -0.3350   -5.8390   -1.7710 hc        1 MOL      0.015681
     35 H15         0.5580   -6.6020   -2.9940 hc        1 MOL      0.015681
     36 H16         0.5690   -4.4550   -4.3040 hx        1 MOL      0.052376
     37 H17        -0.3310   -3.6690   -3.0010 hx        1 MOL      0.052376
     38 H18        -1.5130   -5.9550   -4.4790 hn        1 MOL      0.269177
     39 H19        -2.2660   -5.0190   -3.5050 hn        1 MOL      0.269177
     40 H20        -1.7830   -4.3630   -4.9260 hn        1 MOL      0.269177
     41 N4          4.9440   -3.6590   -1.2620 n         1 MOL     -0.423287
     42 C13         6.0460   -3.1700   -2.1360 c3        1 MOL      0.083045
     43 C14         7.0240   -2.3680   -1.2930 c         1 MOL      0.492255
     44 O6          8.1850   -2.3770   -1.6000 o         1 MOL     -0.574426
     45 C15         5.3960   -2.2770   -3.2190 c3        1 MOL     -0.269832
     46 C16         4.4850   -1.1420   -2.6390 c         1 MOL      0.777917
     47 O7          3.2570   -1.3760   -2.5310 o         1 MOL     -0.796603
     48 O8          4.9960   -0.0500   -2.3470 o         1 MOL     -0.796603
     49 H21         4.3180   -2.9870   -0.8410 hn        1 MOL      0.279415
     50 H22         6.6090   -3.9820   -2.6100 h1        1 MOL      0.105932
     51 H23         4.7610   -2.8570   -3.8820 hc        1 MOL      0.077103
     52 H24         6.1590   -1.8050   -3.8470 hc        1 MOL      0.077103
     53 N5          6.6050   -1.6940   -0.2790 n         1 MOL     -0.173197
     54 C17         7.4320   -0.8120    0.6490 c3        1 MOL     -0.311184
     55 C18         7.5580    0.7120    0.3150 c         1 MOL      0.518047
     56 O9          8.2650    1.3720    1.0620 o         1 MOL     -0.543647
     57 H25         5.6140   -1.7640   -0.1150 hn        1 MOL      0.130447
     58 H26         8.4110   -1.2710    0.7500 h1        1 MOL      0.168758
     59 H27         7.0240   -0.8700    1.6530 h1        1 MOL      0.168758
     60 N6          6.9310    1.1800   -0.7590 n         1 MOL     -0.148510
     61 C19         6.8390    2.6380   -1.1620 c3        1 MOL      0.097012
     62 C20         5.4560    3.1720   -0.9710 c         1 MOL      0.702919
     63 O10         4.4900    2.4500   -0.7730 o         1 MOL     -0.686733
     64 C21         7.3760    2.7500   -2.5460 c3        1 MOL     -0.334179
     65 C22         8.7570    2.2010   -2.7430 c         1 MOL      0.769635
     66 N7          8.8490    1.0930   -3.3570 n         1 MOL     -0.886053
     67 O11         9.7470    2.7700   -2.3860 o         1 MOL     -0.586649
     68 H28         6.4180    0.5500   -1.3630 hn        1 MOL      0.204071
     69 H29         7.4700    3.2020   -0.4740 h1        1 MOL      0.032712
     70 H30         7.4880    3.7730   -2.8890 hc        1 MOL      0.071492
     71 H31         6.7380    2.1800   -3.2310 hc        1 MOL      0.071492
     72 H32         8.0320    0.6520   -3.7630 hn        1 MOL      0.406607
     73 H33         9.7960    0.7740   -3.4540 hn        1 MOL      0.406607
     74 N8          5.3110    4.5070   -1.1420 n         1 MOL     -0.573361
     75 C23         4.0190    5.1990   -1.1460 c3        1 MOL      0.015322
     76 C24         3.2250    5.1770    0.1760 c         1 MOL      0.499042
     77 O12         3.7530    4.9970    1.2630 o         1 MOL     -0.457325
     78 H34         6.1570    5.0580   -1.1370 hn        1 MOL      0.358629
     79 H35         3.4450    4.8440   -2.0010 h1        1 MOL      0.065389
     80 H36         4.2520    6.2110   -1.4900 h1        1 MOL      0.065389
     81 N9          1.9230    5.1670    0.0250 n         1 MOL     -0.507710
     82 C25         0.8970    4.6670    0.9270 c3        1 MOL      0.199927
     83 C26         1.0550    3.1470    1.3610 c         1 MOL      0.444248
     84 O13         1.9570    2.4120    0.8570 o         1 MOL     -0.409725
     85 C27        -0.4620    4.9970    0.3240 c3        1 MOL     -0.048911
     86 C28        -0.8330    6.5060    0.1520 ca        1 MOL      0.029540
     87 C29        -1.3200    7.0580   -1.0500 ca        1 MOL     -0.139229
     88 C30        -0.6630    7.3920    1.2370 ca        1 MOL     -0.139229
     89 C31        -1.5650    8.4100   -1.2250 ca        1 MOL     -0.263911
     90 C32        -0.8680    8.7960    1.1060 ca        1 MOL     -0.263911
     91 C33        -1.3610    9.3130   -0.1600 ca        1 MOL      0.329615
     92 O14        -1.5190   10.6480   -0.4000 oh        1 MOL     -0.438416
     93 H37         1.5900    5.4200   -0.8870 hn        1 MOL      0.242793
     94 H38         0.9860    5.2710    1.8260 h1        1 MOL      0.084976
     95 H39        -1.2840    4.5510    0.8950 hc        1 MOL      0.006085
     96 H40        -0.4920    4.6050   -0.6920 hc        1 MOL      0.006085
     97 H41        -1.4740    6.3950   -1.8930 ha        1 MOL      0.112192
     98 H42        -0.3510    6.9570    2.1790 ha        1 MOL      0.112192
     99 H43        -1.8340    8.8010   -2.1970 ha        1 MOL      0.172768
    100 H44        -0.7070    9.4770    1.9340 ha        1 MOL      0.172768
    101 H45        -1.8860   10.7500   -1.2850 ho        1 MOL      0.343687
    102 N10         0.1780    2.6860    2.1950 n         1 MOL     -0.621889
    103 C34         0.0140    1.3530    2.8090 c3        1 MOL      0.018220
    104 C35        -0.1810    0.2540    1.7090 c         1 MOL      0.407454
    105 O15         0.6790   -0.0810    0.9360 o         1 MOL     -0.399140
    106 C36         1.1050    1.0610    3.9040 c3        1 MOL      0.308364
    107 C37         1.0600   -0.2390    4.7270 c3        1 MOL     -0.206467
    108 C38         1.2660    2.2470    4.8990 c3        1 MOL     -0.290251
    109 C39        -0.3440   -0.5780    5.3060 c3        1 MOL     -0.053369
    110 H46        -0.4940    3.3420    2.5660 hn        1 MOL      0.346490
    111 H47        -0.9570    1.5370    3.2610 h1        1 MOL      0.070308
    112 H48         2.0050    1.1050    3.2840 hc        1 MOL      0.022209
    113 H49         1.8230   -0.2690    5.4990 hc        1 MOL      0.090592
    114 H50         1.2040   -1.0470    4.0010 hc        1 MOL      0.090592
    115 H51         0.3050    2.4420    5.3670 hc        1 MOL      0.070253
    116 H52         2.0990    2.0350    5.5700 hc        1 MOL      0.070253
    117 H53         1.5120    3.1570    4.3450 hc        1 MOL      0.070253
    118 H54        -0.6310    0.2990    5.8900 hc        1 MOL      0.016189
    119 H55        -1.0810   -0.7680    4.5220 hc        1 MOL      0.016189
    120 H56        -0.2800   -1.4190    5.9940 hc        1 MOL      0.016189
    121 N11        -1.3090   -0.4050    1.6250 n         1 MOL     -0.261093
    122 C40        -1.6430   -1.3980    0.5930 c3        1 MOL     -0.106529
    123 C41        -3.2200   -1.6370    0.6880 c         1 MOL      0.657535
    124 O16        -3.6800   -2.2720    1.6220 o         1 MOL     -0.534578
    125 C42        -0.9650   -2.8040    0.7890 c3        1 MOL     -0.172731
    126 O17         0.3820   -2.8970    0.5890 oh        1 MOL     -0.187906
    127 H57        -2.1290   -0.1350    2.1660 hn        1 MOL      0.242402
    128 H58        -1.4660   -1.1310   -0.4510 h1        1 MOL      0.087502
    129 H59        -1.3920   -3.5460    0.1080 h1        1 MOL      0.108621
    130 H60        -1.1860   -3.1790    1.7910 h1        1 MOL      0.108621
    131 H61         0.7140   -2.0960    0.1540 ho        1 MOL      0.214063
    132 N12        -3.9430   -1.1850   -0.2710 n         1 MOL     -0.700239
    133 C43        -5.4200   -1.1370   -0.4110 c3        1 MOL      0.437131
    134 C44        -5.7860   -0.9560   -1.8820 c         1 MOL      0.503151
    135 O18        -4.9350   -0.6260   -2.7270 o         1 MOL     -0.568851
    136 C45        -5.9460    0.0170    0.4960 c3        1 MOL     -0.429142
    137 H62        -3.4980   -0.6260   -0.9800 hn        1 MOL      0.270544
    138 H63        -5.8140   -2.1230   -0.1760 h1        1 MOL      0.029730
    139 H64        -5.6060   -0.0380    1.5310 hc        1 MOL      0.127783
    140 H65        -5.7230    0.9610    0.0010 hc        1 MOL      0.127783
    141 H66        -7.0220    0.1340    0.4730 hc        1 MOL      0.127783
    142 N13        -7.0360   -1.2220   -2.2820 n         1 MOL     -0.574936
    143 C46        -8.2760   -1.5850   -1.5840 c3        1 MOL      0.550132
    144 C47        -9.5350   -0.9620   -2.2250 c         1 MOL      0.252847
    145 O19        -9.5200   -0.4530   -3.3490 o         1 MOL     -0.491772
    146 C48        -8.3450   -3.1450   -1.5550 c3        1 MOL     -0.333521
    147 H67        -7.2280   -1.1130   -3.2750 hn        1 MOL      0.303671
    148 H68        -8.1320   -1.1310   -0.6030 h1        1 MOL     -0.156203
    149 H69        -8.9000   -3.4080   -0.6570 hc        1 MOL      0.086964
    150 H70        -8.7680   -3.4470   -2.5130 hc        1 MOL      0.086964
    151 H71        -7.3760   -3.6430   -1.5380 hc        1 MOL      0.086964
    152 N14       -10.6900   -0.8960   -1.5060 n         1 MOL     -0.117555
    153 C49       -10.9860   -1.2620   -0.1590 c3        1 MOL     -0.462215
    154 C50       -10.3550   -0.4290    0.9830 c         1 MOL      0.795417
    155 O20       -10.0980   -1.0050    2.0370 o         1 MOL     -0.577731
    156 C51       -12.4940   -1.6100    0.0790 c3        1 MOL      0.099991
    157 C52       -13.4750   -0.4940    0.3540 c3        1 MOL     -0.295583
    158 C53       -13.5700    0.4670   -0.8710 c         1 MOL      0.740128
    159 O21       -13.3620    1.6430   -0.7760 o         1 MOL     -0.661769
    160 O22       -13.7360   -0.0390   -2.0030 o         1 MOL     -0.661769
    161 H72       -11.4900   -0.4860   -1.9530 hn        1 MOL      0.238718
    162 H73       -10.4930   -2.2310   -0.1200 h1        1 MOL      0.111498
    163 H74       -12.5160   -2.2130    0.9950 hc        1 MOL      0.030526
    164 H75       -12.8440   -2.2340   -0.7440 hc        1 MOL      0.030526
    165 H76       -13.1700    0.0900    1.2260 hc        1 MOL      0.060056
    166 H77       -14.4460   -0.9790    0.4750 hc        1 MOL      0.060056
    167 N15        -9.9870    0.8410    0.6860 n         1 MOL     -0.366427
    168 C54        -9.3280    1.7470    1.5990 c3        1 MOL     -0.233205
    169 H78        -8.9290    2.5960    1.0430 h1        1 MOL      0.102884
    170 H79       -10.0440    2.1040    2.3400 h1        1 MOL      0.102884
    171 H80        -8.5120    1.2270    2.1020 h1        1 MOL      0.102884
    172 H81       -10.1420    1.2560   -0.2200 hn        1 MOL      0.298650
    173 Ca1         2.6420    0.6190   -1.0410 Ca        1 MOL      1.793568
    174 O23         0.4170    2.0880   -1.4170 oh        1 MOL     -0.883159
    175 H82         0.4660    2.9580   -1.8100 ho        1 MOL      0.428970
    176 H83        -0.5280    1.9370   -1.2860 ho        1 MOL      0.428970
    177 O24         0.5310   -0.9200   -2.1680 oh        1 MOL     -0.883159
    178 H84         0.7880   -1.3710   -2.9680 ho        1 MOL      0.428970
    179 H85        -0.3190   -1.2810   -1.9510 ho        1 MOL      0.428970
@<TRIPOS>BOND
     1    1    2 1   
     2    1    4 1   
     3    1    5 1   
     4    1    6 1   
     5    2    3 2   
     6    2    7 1   
     7    7    8 1   
     8    7   15 1   
     9    8    9 1   
    10    8   11 1   
    11    8   16 1   
    12    9   10 2   
    13    9   19 1   
    14   11   12 1   
    15   11   17 1   
    16   11   18 1   
    17   12   13 1   
    18   12   14 1   
    19   19   20 1   
    20   19   28 1   
    21   20   21 1   
    22   20   23 1   
    23   20   29 1   
    24   21   22 2   
    25   21   41 1   
    26   23   24 1   
    27   23   30 1   
    28   23   31 1   
    29   24   25 1   
    30   24   32 1   
    31   24   33 1   
    32   25   26 1   
    33   25   34 1   
    34   25   35 1   
    35   26   27 1   
    36   26   36 1   
    37   26   37 1   
    38   27   38 1   
    39   27   39 1   
    40   27   40 1   
    41   41   42 1   
    42   41   49 1   
    43   42   43 1   
    44   42   45 1   
    45   42   50 1   
    46   43   44 2   
    47   43   53 1   
    48   45   46 1   
    49   45   51 1   
    50   45   52 1   
    51   46   47 1   
    52   46   48 1   
    53   53   54 1   
    54   53   57 1   
    55   54   55 1   
    56   54   58 1   
    57   54   59 1   
    58   55   56 2   
    59   55   60 1   
    60   60   61 1   
    61   60   68 1   
    62   61   62 1   
    63   61   64 1   
    64   61   69 1   
    65   62   63 2   
    66   62   74 1   
    67   64   65 1   
    68   64   70 1   
    69   64   71 1   
    70   65   66 1   
    71   65   67 2   
    72   66   72 1   
    73   66   73 1   
    74   74   75 1   
    75   74   78 1   
    76   75   76 1   
    77   75   79 1   
    78   75   80 1   
    79   76   77 2   
    80   76   81 1   
    81   81   82 1   
    82   81   93 1   
    83   82   83 1   
    84   82   85 1   
    85   82   94 1   
    86   83   84 2   
    87   83  102 1   
    88   85   86 1   
    89   85   95 1   
    90   85   96 1   
    91   86   87 ar  
    92   86   88 ar  
    93   87   89 ar  
    94   87   97 1   
    95   88   90 ar  
    96   88   98 1   
    97   89   91 ar  
    98   89   99 1   
    99   90   91 ar  
   100   90  100 1   
   101   91   92 1   
   102   92  101 1   
   103  102  103 1   
   104  102  110 1   
   105  103  104 1   
   106  103  106 1   
   107  103  111 1   
   108  104  105 2   
   109  104  121 1   
   110  106  107 1   
   111  106  108 1   
   112  106  112 1   
   113  107  109 1   
   114  107  113 1   
   115  107  114 1   
   116  108  115 1   
   117  108  116 1   
   118  108  117 1   
   119  109  118 1   
   120  109  119 1   
   121  109  120 1   
   122  121  122 1   
   123  121  127 1   
   124  122  123 1   
   125  122  125 1   
   126  122  128 1   
   127  123  124 2   
   128  123  132 1   
   129  125  126 1   
   130  125  129 1   
   131  125  130 1   
   132  126  131 1   
   133  132  133 1   
   134  132  137 1   
   135  133  134 1   
   136  133  136 1   
   137  133  138 1   
   138  134  135 2   
   139  134  142 1   
   140  136  139 1   
   141  136  140 1   
   142  136  141 1   
   143  142  143 1   
   144  142  147 1   
   145  143  144 1   
   146  143  146 1   
   147  143  148 1   
   148  144  145 2   
   149  144  152 1   
   150  146  149 1   
   151  146  150 1   
   152  146  151 1   
   153  152  153 1   
   154  152  161 1   
   155  153  154 1   
   156  153  156 1   
   157  153  162 1   
   158  154  155 2   
   159  154  167 1   
   160  156  157 1   
   161  156  163 1   
   162  156  164 1   
   163  157  158 1   
   164  157  165 1   
   165  157  166 1   
   166  158  159 1   
   167  158  160 1   
   168  167  168 1   
   169  167  172 1   
   170  168  169 1   
   171  168  170 1   
   172  168  171 1   
   173  174  175 1   
   174  174  176 1   
   175  177  178 1   
   176  177  179 1   
@<TRIPOS>SUBSTRUCTURE
     1 MOL         1 TEMP              0 ****  ****    0 ROOT
