@<TRIPOS>MOLECULE
MOL
  192   187     1     0     0
SMALL
resp


@<TRIPOS>ATOM
      1 C1         12.6880    5.0620   -2.6990 c3        1 MOL     -0.293508
      2 C2         12.2820    3.7320   -2.0360 c         1 MOL      0.652755
      3 O1         13.0270    2.7670   -2.0880 o         1 MOL     -0.598977
      4 H1         13.6650    4.9490   -3.1710 hc        1 MOL      0.083855
      5 H2         11.9490    5.3320   -3.4540 hc        1 MOL      0.083855
      6 H3         12.7390    5.8450   -1.9430 hc        1 MOL      0.083855
      7 N1         11.1740    3.5930   -1.3130 n         1 MOL     -0.297746
      8 C3         10.9400    2.4710   -0.3420 c3        1 MOL     -0.273138
      9 C4          9.6040    1.7590   -0.5300 c         1 MOL      0.628009
     10 O2          8.6330    2.5170   -0.5990 o         1 MOL     -0.641558
     11 C5         11.1090    2.9540    1.1370 c3        1 MOL      0.013730
     12 C6         10.4180    4.2990    1.5580 c         1 MOL      0.669660
     13 O3          9.5260    4.8590    0.8400 o         1 MOL     -0.684234
     14 O4         10.8300    4.8060    2.6070 o         1 MOL     -0.684234
     15 H4         10.5330    4.3730   -1.2450 hn        1 MOL      0.121740
     16 H5         11.7510    1.7740   -0.5860 h1        1 MOL      0.125855
     17 H6         12.1800    3.1310    1.2140 hc        1 MOL      0.042330
     18 H7         10.9060    2.0910    1.7710 hc        1 MOL      0.042330
     19 N2          9.5690    0.4950   -0.7210 n         1 MOL     -0.408032
     20 C7          8.3400   -0.3210   -0.8450 c3        1 MOL     -0.022960
     21 C8          7.4590   -0.4170    0.3820 c         1 MOL      0.802776
     22 O5          7.8950   -0.9970    1.3870 o         1 MOL     -0.577926
     23 C9          8.7170   -1.6940   -1.3280 c3        1 MOL     -0.345234
     24 C10         7.4530   -2.6130   -1.6200 c3        1 MOL      0.180561
     25 C11         7.7600   -4.0820   -1.8370 c3        1 MOL     -0.185571
     26 C12         6.4600   -4.8240   -2.0470 c3        1 MOL      0.045800
     27 N3          6.8010   -6.2710   -2.0710 n4        1 MOL     -0.504989
     28 H8         10.3740   -0.1210   -0.6560 hn        1 MOL      0.301043
     29 H9          7.7380    0.1240   -1.6370 h1        1 MOL      0.110491
     30 H10         9.3080   -2.1800   -0.5560 hc        1 MOL      0.116555
     31 H11         9.2740   -1.6520   -2.2650 hc        1 MOL      0.116555
     32 H12         7.0500   -2.2130   -2.5400 hc        1 MOL     -0.025209
     33 H13         6.6860   -2.5710   -0.8480 hc        1 MOL     -0.025209
     34 H14         8.2790   -4.5570   -1.0070 hc        1 MOL      0.072194
     35 H15         8.4660   -4.0930   -2.6720 hc        1 MOL      0.072194
     36 H16         5.9460   -4.5200   -2.9510 hx        1 MOL      0.136443
     37 H17         5.8590   -4.6730   -1.1460 hx        1 MOL      0.136443
     38 H18         5.9570   -6.7620   -2.3020 hn        1 MOL      0.342333
     39 H19         7.3500   -6.4950   -2.8890 hn        1 MOL      0.342333
     40 H20         7.2160   -6.4510   -1.1740 hn        1 MOL      0.342333
     41 N4          6.2090    0.0110    0.2160 n         1 MOL     -0.526959
     42 C13         5.1010   -0.1650    1.2420 c3        1 MOL      0.199254
     43 C14         3.6640    0.1070    0.6680 c         1 MOL      0.374487
     44 O6          3.5700    0.7630   -0.3200 o         1 MOL     -0.502117
     45 C15         5.3900    0.8610    2.3330 c3        1 MOL     -0.133310
     46 C16         5.7760    2.2830    1.9560 c         1 MOL      0.739247
     47 O7          7.0160    2.5620    1.9560 o         1 MOL     -0.781313
     48 O8          5.0610    3.0900    1.3880 o         1 MOL     -0.781313
     49 H21         5.9410    0.5090   -0.6260 hn        1 MOL      0.161069
     50 H22         5.2270   -1.1670    1.6540 h1        1 MOL      0.057327
     51 H23         6.1750    0.3890    2.9290 hc        1 MOL      0.048120
     52 H24         4.6440    0.9480    3.1340 hc        1 MOL      0.048120
     53 N5          2.5790   -0.3380    1.3150 n         1 MOL     -0.247739
     54 C17         2.4440   -1.0720    2.5390 c3        1 MOL     -0.311376
     55 C18         2.4000   -2.6500    2.4490 c         1 MOL      0.744425
     56 O9          3.0080   -3.1930    1.5920 o         1 MOL     -0.592979
     57 H25         1.7310   -0.1200    0.8130 hn        1 MOL      0.281207
     58 H26         1.5070   -0.7410    2.9820 h1        1 MOL      0.122057
     59 H27         3.2450   -0.8120    3.2430 h1        1 MOL      0.122057
     60 N6          1.5930   -3.3450    3.2600 n         1 MOL     -0.560166
     61 C19         1.5800   -4.8010    3.3020 c3        1 MOL      0.102775
     62 C20         0.4540   -5.2910    2.4390 c         1 MOL      0.484549
     63 O10        -0.7320   -4.8670    2.5670 o         1 MOL     -0.500711
     64 C21         1.3170   -5.1910    4.7770 c3        1 MOL     -0.221218
     65 C22         1.3990   -6.6940    5.1580 c         1 MOL      0.669969
     66 O11         1.5110   -7.5480    4.2550 o         1 MOL     -0.668001
     67 O12         1.3990   -6.9690    6.4170 o         1 MOL     -0.668001
     68 H28         1.1490   -2.8220    3.9920 hn        1 MOL      0.297498
     69 H29         2.5770   -5.1060    2.9680 h1        1 MOL      0.064518
     70 H30         0.3960   -4.7570    5.1580 hc        1 MOL      0.062017
     71 H31         2.0940   -4.7080    5.3520 hc        1 MOL      0.062017
     72 N7          0.9020   -6.1050    1.4800 n         1 MOL     -0.331462
     73 C23         0.0820   -6.5810    0.3910 c3        1 MOL      0.031113
     74 C24        -0.2270   -5.6410   -0.8000 c         1 MOL      0.359746
     75 O13        -0.9890   -6.0210   -1.6870 o         1 MOL     -0.530940
     76 H32         1.8690   -6.4060    1.4360 hn        1 MOL      0.253872
     77 H33        -0.8840   -6.8680    0.7960 h1        1 MOL      0.073834
     78 H34         0.3980   -7.5670    0.0320 h1        1 MOL      0.073834
     79 N8          0.3790   -4.4470   -0.8240 n         1 MOL     -0.079465
     80 C25         0.4830   -3.4610   -1.9350 c3        1 MOL     -0.048349
     81 C26         0.1140   -2.0770   -1.4550 c         1 MOL      0.365765
     82 O14         0.1550   -1.8090   -0.2710 o         1 MOL     -0.395171
     83 C27         1.8710   -3.5630   -2.6440 c3        1 MOL      0.305315
     84 C28         3.1060   -3.2800   -1.7380 c3        1 MOL     -0.561402
     85 O15         1.9810   -4.8880   -3.1160 oh        1 MOL     -0.640696
     86 H35         0.7760   -4.2230    0.0790 hn        1 MOL      0.087675
     87 H36        -0.2820   -3.6630   -2.6870 h1        1 MOL      0.057871
     88 H37         1.7550   -2.9230   -3.5230 h1        1 MOL      0.003585
     89 H38         1.4600   -5.0830   -3.8950 ho        1 MOL      0.409284
     90 H39         4.0340   -3.3620   -2.3060 hc        1 MOL      0.148999
     91 H40         2.9150   -2.2630   -1.4060 hc        1 MOL      0.148999
     92 H41         3.0790   -3.8660   -0.8150 hc        1 MOL      0.148999
     93 N9         -0.3520   -1.2030   -2.3490 n         1 MOL     -0.078176
     94 C29        -0.7600    0.1330   -2.0740 c3        1 MOL     -0.561185
     95 C30        -2.0600    0.2190   -1.3070 c         1 MOL      0.639714
     96 O16        -2.2790    1.1220   -0.5150 o         1 MOL     -0.499585
     97 C31        -0.9160    0.9590   -3.4060 c3        1 MOL      0.252189
     98 C32         0.2660    0.6650   -4.4170 c3        1 MOL     -0.027941
     99 C33        -1.1850    2.4460   -3.1610 c3        1 MOL     -0.315880
    100 C34         1.6600    1.1230   -3.9440 c3        1 MOL     -0.313963
    101 H42        -0.4930   -1.6170   -3.2630 hn        1 MOL      0.213440
    102 H43         0.0460    0.5820   -1.4890 h1        1 MOL      0.220114
    103 H44        -1.7970    0.6640   -3.9870 hc        1 MOL     -0.014374
    104 H45        -0.0310    1.1860   -5.3380 hc        1 MOL      0.022648
    105 H46         0.3630   -0.3810   -4.7010 hc        1 MOL      0.022648
    106 H47        -2.0710    2.4470   -2.5370 hc        1 MOL      0.096326
    107 H48        -0.3160    2.9150   -2.7050 hc        1 MOL      0.096326
    108 H49        -1.3150    3.0010   -4.0990 hc        1 MOL      0.096326
    109 H50         1.9400    0.5830   -3.0380 hc        1 MOL      0.081215
    110 H51         2.3460    1.0630   -4.7860 hc        1 MOL      0.081215
    111 H52         1.6300    2.1850   -3.6940 hc        1 MOL      0.081215
    112 N10        -2.9210   -0.8220   -1.4290 n         1 MOL     -0.318635
    113 C35        -4.1830   -0.9220   -0.7420 c3        1 MOL     -0.071243
    114 C36        -5.2780   -1.4540   -1.5920 c         1 MOL      0.577965
    115 O17        -5.0050   -2.2940   -2.4640 o         1 MOL     -0.517940
    116 C37        -4.0190   -1.6380    0.6300 c3        1 MOL      0.332107
    117 C38        -3.2800   -2.9630    0.4860 c3        1 MOL     -0.314346
    118 O18        -3.3970   -0.8060    1.5270 oh        1 MOL     -0.583517
    119 H53        -2.6370   -1.4900   -2.1320 hn        1 MOL      0.193056
    120 H54        -4.4170    0.0980   -0.4420 h1        1 MOL      0.093773
    121 H55        -5.0140   -1.9440    0.9570 h1        1 MOL     -0.039515
    122 H56        -3.2960   -1.2950    2.3510 ho        1 MOL      0.410165
    123 H57        -2.2300   -2.6600    0.4640 hc        1 MOL      0.089328
    124 H58        -3.2920   -3.6280    1.3480 hc        1 MOL      0.089328
    125 H59        -3.6490   -3.4970   -0.3980 hc        1 MOL      0.089328
    126 N11        -6.5870   -1.1000   -1.3520 n         1 MOL     -0.514291
    127 C39        -7.7660   -1.6020   -2.0670 c3        1 MOL      0.056403
    128 C40        -8.8040   -0.4390   -2.0900 c         1 MOL      0.500371
    129 O19        -9.2080    0.0760   -3.1590 o         1 MOL     -0.546521
    130 C41        -8.4150   -2.9240   -1.5480 c3        1 MOL      0.284833
    131 C42        -9.5840   -3.4130   -2.4440 c3        1 MOL     -0.377471
    132 O20        -8.9440   -2.7070   -0.2690 oh        1 MOL     -0.585863
    133 H60        -6.7400   -0.6170   -0.4760 hn        1 MOL      0.263392
    134 H61        -7.5400   -1.7970   -3.1090 h1        1 MOL      0.090141
    135 H62        -7.6230   -3.6770   -1.5360 h1        1 MOL      0.039654
    136 H63        -8.4710   -3.2970    0.3230 ho        1 MOL      0.397607
    137 H64        -9.3530   -3.3570   -3.5070 hc        1 MOL      0.104707
    138 H65        -9.8700   -4.4410   -2.2210 hc        1 MOL      0.104707
    139 H66       -10.4270   -2.7910   -2.1360 hc        1 MOL      0.104707
    140 N12        -9.1970    0.1620   -0.9210 n         1 MOL     -0.289968
    141 C43        -9.9490    1.4070   -0.7840 c3        1 MOL     -0.049783
    142 C44        -9.4550    2.0530    0.5180 c         1 MOL      0.404820
    143 O21        -9.0970    1.3580    1.4920 o         1 MOL     -0.500434
    144 C45       -11.4890    1.2350   -1.0110 c3        1 MOL     -0.157289
    145 C46       -12.1250    0.2210   -0.0080 c3        1 MOL     -0.066198
    146 C47       -13.6240    0.1080   -0.1780 c3        1 MOL      0.037204
    147 C48       -14.2430   -1.0750    0.5720 c3        1 MOL      0.028875
    148 N13       -15.5550   -1.4190   -0.0160 n4        1 MOL     -0.160648
    149 H67        -9.1280   -0.5160   -0.1670 hn        1 MOL      0.202324
    150 H68        -9.6450    2.0530   -1.6140 h1        1 MOL      0.116154
    151 H69       -11.7700    0.9730   -2.0250 hc        1 MOL      0.067274
    152 H70       -11.9760    2.2060   -0.8910 hc        1 MOL      0.067274
    153 H71       -11.7560    0.5830    0.9470 hc        1 MOL      0.058081
    154 H72       -11.5990   -0.7090   -0.2020 hc        1 MOL      0.058081
    155 H73       -13.8430   -0.0260   -1.2390 hc        1 MOL      0.024875
    156 H74       -14.1720    1.0110    0.0850 hc        1 MOL      0.024875
    157 H75       -14.3850   -0.7960    1.6120 hx        1 MOL      0.065433
    158 H76       -13.5670   -1.9150    0.5230 hx        1 MOL      0.065433
    159 H77       -16.2240   -0.6840    0.1380 hn        1 MOL      0.223026
    160 H78       -15.5950   -1.7370   -0.9760 hn        1 MOL      0.223026
    161 H79       -15.8850   -2.1830    0.5460 hn        1 MOL      0.223026
    162 N14        -9.2710    3.3580    0.5550 n         1 MOL     -0.289127
    163 C49        -8.6500    4.1680    1.5940 c3        1 MOL      0.226487
    164 C50        -7.1330    3.8830    1.7770 c         1 MOL      0.422923
    165 O22        -6.8590    3.5470    2.9040 o         1 MOL     -0.511403
    166 C51        -9.0570    5.6150    1.2420 c3        1 MOL      0.006774
    167 C52       -10.3960    6.0280    1.8070 c3        1 MOL     -0.243711
    168 C53       -10.6270    7.5210    1.5080 c         1 MOL      0.707526
    169 O23        -9.7550    8.3300    1.8860 o         1 MOL     -0.650596
    170 O24       -11.6770    7.9060    0.9730 o         1 MOL     -0.650596
    171 H80        -9.6230    3.8720   -0.2400 hn        1 MOL      0.207911
    172 H81        -9.1860    3.8890    2.5080 h1        1 MOL      0.036249
    173 H82        -8.9760    5.7940    0.1690 hc        1 MOL      0.020626
    174 H83        -8.2890    6.2600    1.6860 hc        1 MOL      0.020626
    175 H84       -10.4440    5.7440    2.8590 hc        1 MOL      0.031358
    176 H85       -11.1820    5.4180    1.3520 hc        1 MOL      0.031358
    177 N15        -6.2410    3.8700    0.7180 n         1 MOL     -0.410895
    178 C54        -6.4420    4.4830   -0.6140 c3        1 MOL      0.007685
    179 H86        -7.0040    3.7980   -1.2480 h1        1 MOL      0.037513
    180 H87        -6.9970    5.4150   -0.5060 h1        1 MOL      0.037513
    181 H88        -5.4740    4.6870   -1.0710 h1        1 MOL      0.037513
    182 H89        -5.3370    3.4900    0.9560 hn        1 MOL      0.297371
    183 Ca1         6.9880    4.3510    0.1880 Ca        1 MOL      1.803466
    184 O25         4.4380    5.9030    0.4100 oh        1 MOL     -0.884968
    185 H90         4.1800    6.3400    1.2130 ho        1 MOL      0.440659
    186 H91         3.6130    5.7030   -0.0420 ho        1 MOL      0.440659
    187 O26         6.9550    6.0590    2.3740 oh        1 MOL     -0.884968
    188 H92         6.3580    5.8350    3.0930 ho        1 MOL      0.440659
    189 H93         7.7200    6.4310    2.8050 ho        1 MOL      0.440659
    190 O27         5.8410    2.4540   -1.2840 oh        1 MOL     -0.884968
    191 H94         5.7670    1.7860   -1.9550 ho        1 MOL      0.440659
    192 H95         5.0290    2.3750   -0.7690 ho        1 MOL      0.440659
@<TRIPOS>BOND
     1    1    2 1   
     2    1    4 1   
     3    1    5 1   
     4    1    6 1   
     5    2    3 2   
     6    2    7 1   
     7    7    8 1   
     8    7   15 1   
     9    8    9 1   
    10    8   11 1   
    11    8   16 1   
    12    9   10 2   
    13    9   19 1   
    14   11   12 1   
    15   11   17 1   
    16   11   18 1   
    17   12   13 1   
    18   12   14 1   
    19   19   20 1   
    20   19   28 1   
    21   20   21 1   
    22   20   23 1   
    23   20   29 1   
    24   21   22 2   
    25   21   41 1   
    26   23   24 1   
    27   23   30 1   
    28   23   31 1   
    29   24   25 1   
    30   24   32 1   
    31   24   33 1   
    32   25   26 1   
    33   25   34 1   
    34   25   35 1   
    35   26   27 1   
    36   26   36 1   
    37   26   37 1   
    38   27   38 1   
    39   27   39 1   
    40   27   40 1   
    41   41   42 1   
    42   41   49 1   
    43   42   43 1   
    44   42   45 1   
    45   42   50 1   
    46   43   44 2   
    47   43   53 1   
    48   45   46 1   
    49   45   51 1   
    50   45   52 1   
    51   46   47 1   
    52   46   48 1   
    53   53   54 1   
    54   53   57 1   
    55   54   55 1   
    56   54   58 1   
    57   54   59 1   
    58   55   56 2   
    59   55   60 1   
    60   60   61 1   
    61   60   68 1   
    62   61   62 1   
    63   61   64 1   
    64   61   69 1   
    65   62   63 2   
    66   62   72 1   
    67   64   65 1   
    68   64   70 1   
    69   64   71 1   
    70   65   66 1   
    71   65   67 1   
    72   72   73 1   
    73   72   76 1   
    74   73   74 1   
    75   73   77 1   
    76   73   78 1   
    77   74   75 2   
    78   74   79 1   
    79   79   80 1   
    80   79   86 1   
    81   80   81 1   
    82   80   83 1   
    83   80   87 1   
    84   81   82 2   
    85   81   93 1   
    86   83   84 1   
    87   83   85 1   
    88   83   88 1   
    89   84   90 1   
    90   84   91 1   
    91   84   92 1   
    92   85   89 1   
    93   93   94 1   
    94   93  101 1   
    95   94   95 1   
    96   94   97 1   
    97   94  102 1   
    98   95   96 2   
    99   95  112 1   
   100   97   98 1   
   101   97   99 1   
   102   97  103 1   
   103   98  100 1   
   104   98  104 1   
   105   98  105 1   
   106   99  106 1   
   107   99  107 1   
   108   99  108 1   
   109  100  109 1   
   110  100  110 1   
   111  100  111 1   
   112  112  113 1   
   113  112  119 1   
   114  113  114 1   
   115  113  116 1   
   116  113  120 1   
   117  114  115 2   
   118  114  126 1   
   119  116  117 1   
   120  116  118 1   
   121  116  121 1   
   122  117  123 1   
   123  117  124 1   
   124  117  125 1   
   125  118  122 1   
   126  126  127 1   
   127  126  133 1   
   128  127  128 1   
   129  127  130 1   
   130  127  134 1   
   131  128  129 2   
   132  128  140 1   
   133  130  131 1   
   134  130  132 1   
   135  130  135 1   
   136  131  137 1   
   137  131  138 1   
   138  131  139 1   
   139  132  136 1   
   140  140  141 1   
   141  140  149 1   
   142  141  142 1   
   143  141  144 1   
   144  141  150 1   
   145  142  143 2   
   146  142  162 1   
   147  144  145 1   
   148  144  151 1   
   149  144  152 1   
   150  145  146 1   
   151  145  153 1   
   152  145  154 1   
   153  146  147 1   
   154  146  155 1   
   155  146  156 1   
   156  147  148 1   
   157  147  157 1   
   158  147  158 1   
   159  148  159 1   
   160  148  160 1   
   161  148  161 1   
   162  162  163 1   
   163  162  171 1   
   164  163  164 1   
   165  163  166 1   
   166  163  172 1   
   167  164  165 2   
   168  164  177 1   
   169  166  167 1   
   170  166  173 1   
   171  166  174 1   
   172  167  168 1   
   173  167  175 1   
   174  167  176 1   
   175  168  169 1   
   176  168  170 1   
   177  177  178 1   
   178  177  182 1   
   179  178  179 1   
   180  178  180 1   
   181  178  181 1   
   182  184  185 1   
   183  184  186 1   
   184  187  188 1   
   185  187  189 1   
   186  190  191 1   
   187  190  192 1   
@<TRIPOS>SUBSTRUCTURE
     1 MOL         1 TEMP              0 ****  ****    0 ROOT
