@<TRIPOS>MOLECULE
MOL
  185   180     1     0     0
SMALL
resp


@<TRIPOS>ATOM
      1 C1          4.5650    4.1340    2.6490 c3        1 MOL     -0.446058
      2 C2          5.1400    3.2890    1.5250 c         1 MOL      0.754801
      3 O1          4.6080    2.1550    1.1940 o         1 MOL     -0.620080
      4 H1          3.6610    4.6340    2.3010 hc        1 MOL      0.116759
      5 H2          4.3220    3.4950    3.4970 hc        1 MOL      0.116759
      6 H3          5.2970    4.8810    2.9540 hc        1 MOL      0.116759
      7 N1          6.1550    3.7690    0.7840 n         1 MOL     -0.584930
      8 C3          6.7590    3.2840   -0.4470 c3        1 MOL      0.072664
      9 C4          7.3300    1.8880   -0.5180 c         1 MOL      0.431120
     10 O2          7.7670    1.4030   -1.5350 o         1 MOL     -0.513443
     11 C5          5.8240    3.5080   -1.6860 c3        1 MOL     -0.207908
     12 C6          5.2770    4.8730   -1.9420 c         1 MOL      0.773709
     13 O3          4.3920    5.0060   -2.8100 o         1 MOL     -0.680783
     14 O4          5.8590    5.8410   -1.5110 o         1 MOL     -0.680783
     15 H4          6.6060    4.5710    1.1920 hn        1 MOL      0.306481
     16 H5          7.6340    3.9020   -0.6250 h1        1 MOL      0.078447
     17 H6          5.0260    2.8010   -1.4490 hc        1 MOL      0.081317
     18 H7          6.3490    3.2300   -2.6000 hc        1 MOL      0.081317
     19 N2          7.4340    1.1330    0.5750 n         1 MOL     -0.296108
     20 C7          8.0440   -0.2380    0.7170 c3        1 MOL     -0.240212
     21 C8          7.1630   -1.3650    0.1800 c         1 MOL      0.607448
     22 O5          7.5050   -2.5420    0.3340 o         1 MOL     -0.546736
     23 C9          8.1080   -0.3910    2.2400 c3        1 MOL     -0.036033
     24 C10         8.9810    0.7170    2.8660 c3        1 MOL      0.128714
     25 C11         8.8710    0.7140    4.3880 c3        1 MOL      0.086675
     26 C12         9.5600    1.9070    5.0310 c3        1 MOL      0.135162
     27 N3          9.4610    1.8570    6.4880 n4        1 MOL     -0.294843
     28 H8          7.0060    1.4990    1.4200 hn        1 MOL      0.212460
     29 H9          9.0200   -0.1490    0.2420 h1        1 MOL      0.171010
     30 H10         8.5530   -1.3200    2.6010 hc        1 MOL      0.046265
     31 H11         7.1210   -0.3140    2.6980 hc        1 MOL      0.046265
     32 H12         8.7010    1.7390    2.6080 hc        1 MOL     -0.026722
     33 H13        10.0340    0.5760    2.6370 hc        1 MOL     -0.026722
     34 H14         9.2880   -0.2220    4.7800 hc        1 MOL     -0.028826
     35 H15         7.8180    0.8300    4.6520 hc        1 MOL     -0.028826
     36 H16         9.0420    2.7690    4.5990 hx        1 MOL      0.024020
     37 H17        10.5980    1.9230    4.7110 hx        1 MOL      0.024020
     38 H18        10.0060    1.1220    6.9020 hn        1 MOL      0.260958
     39 H19         9.7440    2.7300    6.9090 hn        1 MOL      0.260958
     40 H20         8.5020    1.8280    6.7980 hn        1 MOL      0.260958
     41 N4          6.0440   -0.9900   -0.4900 n         1 MOL     -0.374926
     42 C13         5.1150   -2.0070   -1.0200 c3        1 MOL     -0.016113
     43 C14         4.5000   -1.6240   -2.3770 c         1 MOL      0.487231
     44 O6          4.2150   -0.4520   -2.6370 o         1 MOL     -0.432349
     45 C15         3.9840   -2.1700    0.0530 c3        1 MOL     -0.051889
     46 C16         3.0390   -3.3170   -0.0890 c         1 MOL      0.712924
     47 O7          2.0640   -3.3670   -0.8740 o         1 MOL     -0.751474
     48 O8          3.2910   -4.3150    0.6110 o         1 MOL     -0.751474
     49 H21         5.8470    0.0010   -0.5900 hn        1 MOL      0.316356
     50 H22         5.5850   -2.9860   -1.1270 h1        1 MOL      0.035033
     51 H23         3.5150   -1.1770    0.0660 hc        1 MOL      0.052608
     52 H24         4.5150   -2.2840    0.9940 hc        1 MOL      0.052608
     53 N5          4.1230   -2.6190   -3.2120 n         1 MOL     -0.407931
     54 C17         3.4600   -2.5460   -4.4610 c3        1 MOL     -0.161910
     55 C18         2.0110   -1.9260   -4.4020 c         1 MOL      0.491630
     56 O9          1.6180   -1.2780   -5.3350 o         1 MOL     -0.501516
     57 H25         4.3310   -3.5840   -2.9750 hn        1 MOL      0.305297
     58 H26         3.4070   -3.5270   -4.9400 h1        1 MOL      0.111124
     59 H27         3.9970   -1.9140   -5.1560 h1        1 MOL      0.111124
     60 N6          1.2560   -2.1250   -3.2960 n         1 MOL     -0.362705
     61 C19        -0.1040   -1.5530   -3.0650 c3        1 MOL     -0.238600
     62 C20        -0.0920   -0.0380   -2.6290 c         1 MOL      0.524260
     63 O10        -0.9820    0.7820   -2.9160 o         1 MOL     -0.504510
     64 C21        -0.9970   -2.3810   -2.0400 c3        1 MOL     -0.295207
     65 C22        -1.1510   -3.7990   -2.4450 c         1 MOL      0.706477
     66 N7         -1.7730   -4.0370   -3.5540 n         1 MOL     -0.693768
     67 O11        -0.7280   -4.7390   -1.6730 o         1 MOL     -0.664489
     68 H28         1.6660   -2.6970   -2.5760 hn        1 MOL      0.247781
     69 H29        -0.6530   -1.7520   -3.9870 h1        1 MOL      0.154894
     70 H30        -1.9570   -1.9120   -1.8550 hc        1 MOL      0.159562
     71 H31        -0.4970   -2.4570   -1.0810 hc        1 MOL      0.159562
     72 H32        -2.1390   -3.3200   -4.1510 hn        1 MOL      0.342612
     73 H33        -1.6750   -4.9670   -3.9390 hn        1 MOL      0.342612
     74 N8          1.1310    0.3510   -2.1460 n         1 MOL     -0.039352
     75 C23         1.6270    1.6730   -1.8000 c3        1 MOL     -0.309527
     76 C24         0.6520    2.5670   -1.0070 c         1 MOL      0.561693
     77 O12         0.4550    2.3710    0.2000 o         1 MOL     -0.532941
     78 H34         1.8060   -0.3860   -1.9810 hn        1 MOL      0.172671
     79 H35         1.8590    2.3120   -2.6500 h1        1 MOL      0.108883
     80 H36         2.5360    1.6910   -1.1980 h1        1 MOL      0.108883
     81 N9          0.2390    3.6030   -1.7480 n         1 MOL     -0.563549
     82 C25        -0.6830    4.6280   -1.4040 c3        1 MOL      0.427341
     83 C26        -2.0760    4.1750   -0.8980 c         1 MOL      0.117680
     84 O13        -3.1250    4.7680   -1.1920 o         1 MOL     -0.453835
     85 C27        -0.0440    5.5440   -0.3600 c3        1 MOL     -0.261570
     86 C28        -1.0110    6.6610    0.1570 ca        1 MOL      0.180328
     87 C29        -1.8420    7.3790   -0.7190 ca        1 MOL     -0.312112
     88 C30        -1.0100    7.0560    1.5280 ca        1 MOL     -0.312112
     89 C31        -2.7330    8.3590   -0.2850 ca        1 MOL     -0.063044
     90 C32        -1.8690    8.0540    1.9820 ca        1 MOL     -0.063044
     91 C33        -2.6920    8.7440    1.0880 ca        1 MOL      0.143685
     92 O14        -3.5850    9.6970    1.5190 oh        1 MOL     -0.480035
     93 H37         0.5960    3.6470   -2.6910 hn        1 MOL      0.354671
     94 H38        -0.8220    5.1350   -2.3570 h1        1 MOL      0.018542
     95 H39         0.8620    5.9970   -0.7690 hc        1 MOL      0.122483
     96 H40         0.2720    4.9350    0.4900 hc        1 MOL      0.122483
     97 H41        -1.6300    7.3650   -1.7770 ha        1 MOL      0.149731
     98 H42        -0.3050    6.5890    2.1980 ha        1 MOL      0.149731
     99 H43        -3.4210    8.8330   -0.9680 ha        1 MOL      0.108293
    100 H44        -1.8940    8.3080    3.0290 ha        1 MOL      0.108293
    101 H45        -3.7640    9.7090    2.4560 ho        1 MOL      0.364554
    102 N10        -2.1450    3.1310   -0.0570 n         1 MOL     -0.064453
    103 C34        -3.3170    2.5060    0.5020 c3        1 MOL      0.044174
    104 C35        -4.2810    1.7950   -0.5300 c         1 MOL      0.261972
    105 O15        -4.3290    0.5440   -0.5850 o         1 MOL     -0.454022
    106 C36        -4.1110    3.4240    1.4550 c3        1 MOL      0.288894
    107 C37        -3.2090    4.3410    2.3450 c3        1 MOL      0.134119
    108 C38        -5.0300    2.5850    2.3460 c3        1 MOL     -0.483623
    109 C39        -2.0590    3.6630    3.1600 c3        1 MOL     -0.271109
    110 H46        -1.2720    2.6830    0.1990 hn        1 MOL      0.175544
    111 H47        -3.0490    1.6010    1.0600 h1        1 MOL      0.060837
    112 H48        -4.7580    4.0920    0.8940 hc        1 MOL     -0.068716
    113 H49        -3.8770    4.8820    3.0180 hc        1 MOL     -0.043229
    114 H50        -2.6750    5.1060    1.7900 hc        1 MOL     -0.043229
    115 H51        -5.7150    3.2650    2.8580 hc        1 MOL      0.105004
    116 H52        -5.7100    1.8780    1.8680 hc        1 MOL      0.105004
    117 H53        -4.4310    1.9650    3.0070 hc        1 MOL      0.105004
    118 H54        -1.3990    3.0250    2.5740 hc        1 MOL      0.063868
    119 H55        -1.4500    4.4100    3.6650 hc        1 MOL      0.063868
    120 H56        -2.5340    3.0370    3.9180 hc        1 MOL      0.063868
    121 N11        -4.9880    2.5640   -1.3630 n         1 MOL     -0.126486
    122 C40        -5.8130    2.0790   -2.3300 c3        1 MOL      0.207103
    123 C41        -6.8900    1.1580   -1.7150 c         1 MOL      0.156532
    124 O16        -7.0810    0.0380   -2.1750 o         1 MOL     -0.480997
    125 C42        -6.4020    3.2370   -3.0730 c3        1 MOL      0.167230
    126 O17        -5.3590    3.8010   -3.8430 oh        1 MOL     -0.579313
    127 H57        -4.8240    3.5580   -1.4390 hn        1 MOL      0.177948
    128 H58        -5.2760    1.4670   -3.0500 h1        1 MOL      0.067330
    129 H59        -6.9330    3.9090   -2.4070 h1        1 MOL     -0.009463
    130 H60        -7.1960    2.8050   -3.6900 h1        1 MOL     -0.009463
    131 H61        -5.6890    4.6760   -4.0630 ho        1 MOL      0.398839
    132 N12        -7.4560    1.5550   -0.6020 n         1 MOL     -0.077751
    133 C43        -8.3940    0.8130    0.2440 c3        1 MOL      0.225336
    134 C44        -7.9880   -0.6680    0.6100 c         1 MOL      0.530877
    135 O18        -8.8190   -1.3880    1.0860 o         1 MOL     -0.558896
    136 C45        -9.8030    1.0100   -0.3730 c3        1 MOL     -0.383038
    137 H62        -7.3450    2.5260   -0.3690 hn        1 MOL      0.138096
    138 H63        -8.4430    1.3240    1.2080 h1        1 MOL      0.008129
    139 H64        -9.7490    0.4530   -1.3000 hc        1 MOL      0.101087
    140 H65       -10.6400    0.6250    0.2090 hc        1 MOL      0.101087
    141 H66        -9.8880    2.0480   -0.6980 hc        1 MOL      0.101087
    142 N13        -6.7110   -1.0860    0.4240 n         1 MOL     -0.495144
    143 C46        -6.3540   -2.5080    0.4900 c3        1 MOL      0.395938
    144 C47        -5.4590   -2.8730    1.6440 c         1 MOL      0.345549
    145 O19        -4.8350   -1.9890    2.2070 o         1 MOL     -0.400745
    146 C48        -5.6900   -2.8760   -0.8680 c3        1 MOL     -0.166826
    147 H67        -6.0360   -0.4140    0.1210 hn        1 MOL      0.167273
    148 H68        -7.2450   -3.1460    0.4340 h1        1 MOL     -0.000201
    149 H69        -5.2980   -3.8850   -0.9760 hc        1 MOL      0.054343
    150 H70        -6.4260   -2.7620   -1.6550 hc        1 MOL      0.054343
    151 H71        -4.8210   -2.2150   -0.9330 hc        1 MOL      0.054343
    152 N14        -5.3820   -4.1660    2.0790 n         1 MOL     -0.460100
    153 C49        -4.5830   -4.6610    3.1720 c3        1 MOL      0.021967
    154 C50        -4.7850   -3.9230    4.5620 c         1 MOL      0.319175
    155 O20        -3.8200   -3.5810    5.2610 o         1 MOL     -0.473371
    156 C51        -3.0800   -4.7400    2.7170 c3        1 MOL      0.231568
    157 C52        -2.8710   -5.8090    1.6930 c3        1 MOL     -0.117388
    158 C53        -1.4060   -5.9350    1.2500 c         1 MOL      0.835405
    159 O21        -0.5020   -5.1070    1.5270 o         1 MOL     -0.799637
    160 O22        -1.1430   -6.8520    0.4380 o         1 MOL     -0.799637
    161 H72        -5.9820   -4.8860    1.6850 hn        1 MOL      0.263002
    162 H73        -4.9670   -5.6740    3.2870 h1        1 MOL      0.039052
    163 H74        -2.4570   -4.9500    3.5860 hc        1 MOL     -0.028151
    164 H75        -2.7660   -3.7630    2.3580 hc        1 MOL     -0.028151
    165 H76        -3.5490   -5.7180    0.8480 hc        1 MOL     -0.015301
    166 H77        -3.0670   -6.7100    2.2570 hc        1 MOL     -0.015301
    167 N15        -6.0120   -3.6070    4.9440 n         1 MOL     -0.224494
    168 C54        -6.3040   -2.6920    6.0440 c3        1 MOL     -0.121153
    169 H78        -7.2060   -2.1240    5.8140 h1        1 MOL      0.080682
    170 H79        -6.4590   -3.2620    6.9600 h1        1 MOL      0.080682
    171 H80        -5.4680   -2.0060    6.1790 h1        1 MOL      0.080682
    172 H81        -6.7400   -3.8430    4.2880 hn        1 MOL      0.209284
    173 Ca1         1.3070   -5.9570   -0.2890 Ca        1 MOL      1.775579
    174 O23         1.7650   -5.8760   -2.9360 oh        1 MOL     -0.845874
    175 H82         2.4060   -5.9570   -3.6340 ho        1 MOL      0.418936
    176 H83         0.9180   -5.9740   -3.3710 ho        1 MOL      0.418936
    177 O24         3.5240   -7.2640   -1.0780 oh        1 MOL     -0.845874
    178 H84         4.1060   -7.8770   -0.6160 ho        1 MOL      0.418936
    179 H85         4.0880   -6.8370   -1.7230 ho        1 MOL      0.418936
    180 O25         0.8460   -8.5860   -1.1460 oh        1 MOL     -0.845874
    181 H86         1.4770   -9.0000   -1.7350 ho        1 MOL      0.418936
    182 H87         0.3870   -9.3190   -0.7320 ho        1 MOL      0.418936
    183 O26         2.1230   -7.3560    2.0190 oh        1 MOL     -0.845874
    184 H88         3.0170   -7.2560    2.3530 ho        1 MOL      0.418936
    185 H89         1.7590   -8.0760    2.5270 ho        1 MOL      0.418936
@<TRIPOS>BOND
     1    1    2 1   
     2    1    4 1   
     3    1    5 1   
     4    1    6 1   
     5    2    3 2   
     6    2    7 1   
     7    7    8 1   
     8    7   15 1   
     9    8    9 1   
    10    8   11 1   
    11    8   16 1   
    12    9   10 2   
    13    9   19 1   
    14   11   12 1   
    15   11   17 1   
    16   11   18 1   
    17   12   13 1   
    18   12   14 1   
    19   19   20 1   
    20   19   28 1   
    21   20   21 1   
    22   20   23 1   
    23   20   29 1   
    24   21   22 2   
    25   21   41 1   
    26   23   24 1   
    27   23   30 1   
    28   23   31 1   
    29   24   25 1   
    30   24   32 1   
    31   24   33 1   
    32   25   26 1   
    33   25   34 1   
    34   25   35 1   
    35   26   27 1   
    36   26   36 1   
    37   26   37 1   
    38   27   38 1   
    39   27   39 1   
    40   27   40 1   
    41   41   42 1   
    42   41   49 1   
    43   42   43 1   
    44   42   45 1   
    45   42   50 1   
    46   43   44 2   
    47   43   53 1   
    48   45   46 1   
    49   45   51 1   
    50   45   52 1   
    51   46   47 1   
    52   46   48 1   
    53   53   54 1   
    54   53   57 1   
    55   54   55 1   
    56   54   58 1   
    57   54   59 1   
    58   55   56 2   
    59   55   60 1   
    60   60   61 1   
    61   60   68 1   
    62   61   62 1   
    63   61   64 1   
    64   61   69 1   
    65   62   63 2   
    66   62   74 1   
    67   64   65 1   
    68   64   70 1   
    69   64   71 1   
    70   65   66 1   
    71   65   67 2   
    72   66   72 1   
    73   66   73 1   
    74   74   75 1   
    75   74   78 1   
    76   75   76 1   
    77   75   79 1   
    78   75   80 1   
    79   76   77 2   
    80   76   81 1   
    81   81   82 1   
    82   81   93 1   
    83   82   83 1   
    84   82   85 1   
    85   82   94 1   
    86   83   84 2   
    87   83  102 1   
    88   85   86 1   
    89   85   95 1   
    90   85   96 1   
    91   86   87 ar  
    92   86   88 ar  
    93   87   89 ar  
    94   87   97 1   
    95   88   90 ar  
    96   88   98 1   
    97   89   91 ar  
    98   89   99 1   
    99   90   91 ar  
   100   90  100 1   
   101   91   92 1   
   102   92  101 1   
   103  102  103 1   
   104  102  110 1   
   105  103  104 1   
   106  103  106 1   
   107  103  111 1   
   108  104  105 2   
   109  104  121 1   
   110  106  107 1   
   111  106  108 1   
   112  106  112 1   
   113  107  109 1   
   114  107  113 1   
   115  107  114 1   
   116  108  115 1   
   117  108  116 1   
   118  108  117 1   
   119  109  118 1   
   120  109  119 1   
   121  109  120 1   
   122  121  122 1   
   123  121  127 1   
   124  122  123 1   
   125  122  125 1   
   126  122  128 1   
   127  123  124 2   
   128  123  132 1   
   129  125  126 1   
   130  125  129 1   
   131  125  130 1   
   132  126  131 1   
   133  132  133 1   
   134  132  137 1   
   135  133  134 1   
   136  133  136 1   
   137  133  138 1   
   138  134  135 2   
   139  134  142 1   
   140  136  139 1   
   141  136  140 1   
   142  136  141 1   
   143  142  143 1   
   144  142  147 1   
   145  143  144 1   
   146  143  146 1   
   147  143  148 1   
   148  144  145 2   
   149  144  152 1   
   150  146  149 1   
   151  146  150 1   
   152  146  151 1   
   153  152  153 1   
   154  152  161 1   
   155  153  154 1   
   156  153  156 1   
   157  153  162 1   
   158  154  155 2   
   159  154  167 1   
   160  156  157 1   
   161  156  163 1   
   162  156  164 1   
   163  157  158 1   
   164  157  165 1   
   165  157  166 1   
   166  158  159 1   
   167  158  160 1   
   168  167  168 1   
   169  167  172 1   
   170  168  169 1   
   171  168  170 1   
   172  168  171 1   
   173  174  175 1   
   174  174  176 1   
   175  177  178 1   
   176  177  179 1   
   177  180  181 1   
   178  180  182 1   
   179  183  184 1   
   180  183  185 1   
@<TRIPOS>SUBSTRUCTURE
     1 MOL         1 TEMP              0 ****  ****    0 ROOT
