@<TRIPOS>MOLECULE
MOL
  182   178     1     0     0
SMALL
resp


@<TRIPOS>ATOM
      1 C1          0.2360   -3.3980    6.1770 c3        1 MOL     -0.394253
      2 C2          0.4240   -3.3580    4.6270 c         1 MOL      0.757687
      3 O1         -0.5640   -3.3850    3.8470 o         1 MOL     -0.602196
      4 H1          0.2200   -4.4340    6.5140 hc        1 MOL      0.118349
      5 H2          1.0630   -2.8740    6.6580 hc        1 MOL      0.118349
      6 H3         -0.7040   -2.9160    6.4430 hc        1 MOL      0.118349
      7 N1          1.7100   -3.3810    4.1420 n         1 MOL     -0.685158
      8 C3          2.0390   -3.1570    2.7610 c3        1 MOL      0.392082
      9 C4          2.2190   -4.4410    1.9240 c         1 MOL      0.458180
     10 O2          2.6440   -5.5060    2.3860 o         1 MOL     -0.553726
     11 C5          3.3520   -2.3180    2.7650 c3        1 MOL     -0.002481
     12 C6          3.4910   -1.5130    1.3760 c         1 MOL      0.599144
     13 O3          3.7040   -0.2750    1.4530 o         1 MOL     -0.687835
     14 O4          3.3910   -2.0600    0.3070 o         1 MOL     -0.687835
     15 H4          2.4570   -3.3540    4.8090 hn        1 MOL      0.338994
     16 H5          1.2690   -2.4990    2.3460 h1        1 MOL     -0.268412
     17 H6          4.1260   -3.0480    3.0080 hc        1 MOL      0.009554
     18 H7          3.4330   -1.5760    3.5590 hc        1 MOL      0.009554
     19 N2          2.0310   -4.3960    0.6120 n         1 MOL     -0.191292
     20 C7          2.2080   -5.4910   -0.3990 c3        1 MOL      0.083465
     21 C8          3.5040   -5.3330   -1.1660 c         1 MOL      0.394533
     22 O5          4.2270   -6.3070   -1.3870 o         1 MOL     -0.526454
     23 C9          1.0440   -5.6190   -1.3540 c3        1 MOL     -0.191565
     24 C10        -0.2770   -6.0820   -0.6480 c3        1 MOL     -0.092310
     25 C11        -1.3750   -6.2420   -1.6510 c3        1 MOL      0.042645
     26 C12        -2.5870   -6.9420   -0.9270 c3        1 MOL     -0.008157
     27 N3         -3.6770   -7.0420   -1.9250 n4        1 MOL     -0.122559
     28 H8          1.9320   -3.4820    0.1990 hn        1 MOL      0.170329
     29 H9          2.2530   -6.4660    0.0910 h1        1 MOL      0.085711
     30 H10         1.3620   -6.3870   -2.0630 hc        1 MOL      0.069007
     31 H11         0.8710   -4.6440   -1.8000 hc        1 MOL      0.069007
     32 H12        -0.5200   -5.4060    0.1670 hc        1 MOL      0.067071
     33 H13        -0.1040   -7.0970   -0.2850 hc        1 MOL      0.067071
     34 H14        -1.1030   -6.9560   -2.4300 hc        1 MOL      0.015493
     35 H15        -1.6270   -5.2770   -2.0910 hc        1 MOL      0.015493
     36 H16        -2.9170   -6.2170   -0.1720 hx        1 MOL      0.075948
     37 H17        -2.3070   -7.9140   -0.5230 hx        1 MOL      0.075948
     38 H18        -4.5120   -7.3560   -1.4610 hn        1 MOL      0.213546
     39 H19        -3.9080   -6.2010   -2.4390 hn        1 MOL      0.213546
     40 H20        -3.5010   -7.8300   -2.5360 hn        1 MOL      0.213546
     41 N4          3.9230   -4.1070   -1.5460 n         1 MOL     -0.065796
     42 C13         5.1700   -3.8910   -2.3600 c3        1 MOL     -0.025453
     43 C14         6.3700   -3.6350   -1.4540 c         1 MOL      0.540790
     44 O6          7.4480   -4.1450   -1.5920 o         1 MOL     -0.578444
     45 C15         4.9290   -2.8840   -3.4800 c3        1 MOL     -0.191973
     46 C16         4.2060   -1.6630   -3.0400 c         1 MOL      0.775494
     47 O7          4.7140   -0.9790   -2.1190 o         1 MOL     -0.740313
     48 O8          3.0590   -1.5490   -3.4010 o         1 MOL     -0.740313
     49 H21         3.3810   -3.4060   -1.0670 hn        1 MOL     -0.017527
     50 H22         5.3880   -4.8800   -2.7570 h1        1 MOL      0.088980
     51 H23         4.2880   -3.3790   -4.2080 hc        1 MOL      0.053082
     52 H24         5.8570   -2.5230   -3.9290 hc        1 MOL      0.053082
     53 N5          6.1200   -2.8930   -0.4250 n         1 MOL     -0.102053
     54 C17         6.9920   -2.6070    0.6830 c3        1 MOL     -0.256496
     55 C18         7.1440   -1.0550    0.9520 c         1 MOL      0.514271
     56 O9          7.6650   -0.6440    1.9570 o         1 MOL     -0.546078
     57 H25         5.2090   -2.4890   -0.2970 hn        1 MOL      0.140828
     58 H26         7.9900   -3.0410    0.5640 h1        1 MOL      0.131664
     59 H27         6.7050   -3.0630    1.6290 h1        1 MOL      0.131664
     60 N6          6.8750   -0.2050   -0.0370 n         1 MOL     -0.088687
     61 C19         7.3130    1.1880   -0.2180 c3        1 MOL     -0.015240
     62 C20         6.1630    2.2510    0.0760 c         1 MOL      0.487773
     63 O10         5.0080    1.9730   -0.2360 o         1 MOL     -0.415139
     64 C21         7.8600    1.2840   -1.6760 c3        1 MOL     -0.346353
     65 C22         9.1520    0.5530   -1.8960 c         1 MOL      0.753367
     66 N7          9.2410   -0.3910   -2.8290 n         1 MOL     -0.906694
     67 O11        10.0890    0.8840   -1.2170 o         1 MOL     -0.540273
     68 H28         6.2910   -0.4940   -0.8110 hn        1 MOL      0.016226
     69 H29         8.1680    1.2820    0.4470 h1        1 MOL      0.086057
     70 H30         7.9890    2.3310   -1.9570 hc        1 MOL      0.085660
     71 H31         7.0200    0.9950   -2.3250 hc        1 MOL      0.085660
     72 H32         8.3650   -0.6250   -3.2640 hn        1 MOL      0.417509
     73 H33        10.0940   -0.9250   -2.9660 hn        1 MOL      0.417509
     74 N8          6.4940    3.5510    0.4270 n         1 MOL     -0.434204
     75 C23         5.5260    4.6840    0.3940 c3        1 MOL      0.027769
     76 C24         4.1250    4.4910    1.0400 c         1 MOL      0.526371
     77 O12         4.0190    4.1130    2.2270 o         1 MOL     -0.496035
     78 H34         7.4630    3.7070    0.6930 hn        1 MOL      0.307241
     79 H35         5.3820    4.9510   -0.6500 h1        1 MOL      0.054058
     80 H36         6.0030    5.5410    0.8590 h1        1 MOL      0.054058
     81 N9          3.1490    4.9070    0.3100 n         1 MOL     -0.533704
     82 C25         1.7420    4.8240    0.6660 c3        1 MOL      0.186373
     83 C26         1.3440    3.3620    0.7280 c         1 MOL      0.624079
     84 O13         1.8900    2.5070    0.0360 o         1 MOL     -0.556662
     85 C27         0.8690    5.7000   -0.2900 c3        1 MOL     -0.287882
     86 C28         1.3850    7.1450   -0.5700 ca        1 MOL      0.158998
     87 C29         1.5090    7.9860    0.5430 ca        1 MOL     -0.176687
     88 C30         1.6160    7.6460   -1.8400 ca        1 MOL     -0.176687
     89 C31         2.0460    9.2470    0.3690 ca        1 MOL     -0.244157
     90 C32         2.1030    8.9520   -1.9890 ca        1 MOL     -0.244157
     91 C33         2.4380    9.7270   -0.8840 ca        1 MOL      0.335187
     92 O14         3.1700   10.8500   -1.0610 oh        1 MOL     -0.485092
     93 H37         3.3650    5.4910   -0.4950 hn        1 MOL      0.271247
     94 H38         1.6080    5.1080    1.7110 h1        1 MOL      0.044434
     95 H39        -0.1890    5.7680   -0.0460 hc        1 MOL      0.088604
     96 H40         0.9620    5.2450   -1.2680 hc        1 MOL      0.088604
     97 H41         1.2330    7.6080    1.5190 ha        1 MOL      0.136060
     98 H42         1.3670    7.0520   -2.7030 ha        1 MOL      0.136060
     99 H43         2.2620    9.9070    1.1900 ha        1 MOL      0.149719
    100 H44         2.2960    9.2740   -2.9990 ha        1 MOL      0.149719
    101 H45         3.4000   11.3200   -0.2540 ho        1 MOL      0.384052
    102 N10         0.3640    3.0960    1.6760 n         1 MOL     -0.725328
    103 C34        -0.0830    1.7940    2.2280 c3        1 MOL      0.191855
    104 C35        -0.2580    0.6590    1.2230 c         1 MOL      0.164474
    105 O15         0.6390    0.1160    0.6640 o         1 MOL     -0.185654
    106 C36         0.9040    1.4180    3.4130 c3        1 MOL      0.266769
    107 C37         0.4080    0.2570    4.2310 c3        1 MOL     -0.197582
    108 C38         1.4230    2.5110    4.3600 c3        1 MOL     -0.343281
    109 C39        -0.7300    0.5810    5.2470 c3        1 MOL     -0.291701
    110 H46        -0.0340    3.9040    2.1440 hn        1 MOL      0.350301
    111 H47        -1.0500    1.9460    2.7090 h1        1 MOL      0.069247
    112 H48         1.8460    1.1410    2.9400 hc        1 MOL      0.009168
    113 H49         1.1830   -0.2010    4.8350 hc        1 MOL      0.111628
    114 H50         0.0730   -0.6210    3.6740 hc        1 MOL      0.111628
    115 H51         0.6290    3.2320    4.5390 hc        1 MOL      0.090806
    116 H52         1.8130    2.1550    5.3080 hc        1 MOL      0.090806
    117 H53         2.2840    2.9630    3.8670 hc        1 MOL      0.090806
    118 H54        -1.5620    1.0240    4.6990 hc        1 MOL      0.069609
    119 H55        -1.0200   -0.3220    5.7840 hc        1 MOL      0.069609
    120 H56        -0.4990    1.3070    6.0170 hc        1 MOL      0.069609
    121 N11        -1.5190    0.2020    1.0700 n         1 MOL     -0.281492
    122 C40        -1.8540   -0.9560    0.1800 c3        1 MOL     -0.182738
    123 C41        -3.3700   -1.0230   -0.2310 c         1 MOL      0.662485
    124 O16        -3.6880   -1.7640   -1.1520 o         1 MOL     -0.535294
    125 C42        -1.4430   -2.2880    0.8010 c3        1 MOL      0.418565
    126 O17        -2.2960   -2.5460    1.9110 oh        1 MOL     -0.681190
    127 H57        -2.2580    0.6680    1.5750 hn        1 MOL      0.223693
    128 H58        -1.2030   -0.8220   -0.6860 h1        1 MOL      0.052246
    129 H59        -0.4350   -2.3860    1.2340 h1        1 MOL     -0.034046
    130 H60        -1.4590   -3.0210    0.0040 h1        1 MOL     -0.034046
    131 H61        -1.9390   -3.0360    2.6510 ho        1 MOL      0.430835
    132 N12        -4.2760   -0.1170    0.1910 n         1 MOL     -0.562477
    133 C43        -5.5830   -0.0330   -0.3000 c3        1 MOL     -0.076396
    134 C44        -5.7330    0.5320   -1.7710 c         1 MOL      0.733577
    135 O18        -4.9090    1.0980   -2.4160 o         1 MOL     -0.553018
    136 C45        -6.3340    0.7890    0.7080 c3        1 MOL     -0.209218
    137 H62        -4.0470    0.4520    0.9880 hn        1 MOL      0.336934
    138 H63        -6.0610   -1.0000   -0.1740 h1        1 MOL      0.164126
    139 H64        -5.9800    1.8130    0.7330 hc        1 MOL      0.079981
    140 H65        -7.4160    0.8260    0.5670 hc        1 MOL      0.079981
    141 H66        -6.1540    0.4510    1.7360 hc        1 MOL      0.079981
    142 N13        -6.8980    0.3290   -2.4720 n         1 MOL     -0.780751
    143 C46        -8.0270   -0.5340   -2.1010 c3        1 MOL      0.489836
    144 C47        -9.3300   -0.0270   -2.8250 c         1 MOL      0.301820
    145 O19        -9.3720    0.1410   -4.0740 o         1 MOL     -0.515769
    146 C48        -7.8020   -2.0060   -2.5220 c3        1 MOL     -0.107592
    147 H67        -6.8250    0.7560   -3.3790 hn        1 MOL      0.375153
    148 H68        -8.2770   -0.3690   -1.0510 h1        1 MOL     -0.105046
    149 H69        -8.6970   -2.5630   -2.2590 hc        1 MOL      0.025694
    150 H70        -7.5620   -2.0670   -3.5840 hc        1 MOL      0.025694
    151 H71        -7.0820   -2.4660   -1.8460 hc        1 MOL      0.025694
    152 N14       -10.4550    0.3000   -2.1740 n         1 MOL     -0.339957
    153 C49       -10.8080    0.0010   -0.7230 c3        1 MOL     -0.141498
    154 C50       -10.0240    0.9420    0.2330 c         1 MOL      0.527284
    155 O20        -9.6550    0.5920    1.3670 o         1 MOL     -0.548527
    156 C51       -12.3230    0.2390   -0.5720 c3        1 MOL      0.085522
    157 C52       -12.8720    0.1720    0.8650 c3        1 MOL     -0.237456
    158 C53       -14.3400    0.6210    0.9300 c         1 MOL      0.718273
    159 O21       -15.1620   -0.1930    1.4440 o         1 MOL     -0.660457
    160 O22       -14.7210    1.7260    0.5200 o         1 MOL     -0.660457
    161 H72       -11.1890    0.7030   -2.7320 hn        1 MOL      0.288426
    162 H73       -10.5850   -1.0400   -0.4720 h1        1 MOL      0.118656
    163 H74       -12.9860   -0.3720   -1.1880 hc        1 MOL      0.003840
    164 H75       -12.4090    1.2820   -0.8930 hc        1 MOL      0.003840
    165 H76       -12.4440    0.9390    1.5030 hc        1 MOL      0.058369
    166 H77       -12.6940   -0.7850    1.3360 hc        1 MOL      0.058369
    167 N15        -9.7560    2.1270   -0.2440 n         1 MOL     -0.239845
    168 C54        -9.1140    3.2980    0.4410 c3        1 MOL     -0.357532
    169 H78        -8.9680    4.1040   -0.2790 h1        1 MOL      0.145089
    170 H79        -9.7590    3.6460    1.2480 h1        1 MOL      0.145089
    171 H80        -8.1490    2.9970    0.8490 h1        1 MOL      0.145089
    172 H81       -10.2030    2.3980   -1.1090 hn        1 MOL      0.263117
    173 Ca1         2.7830    0.3510   -1.0640 Ca        1 MOL      1.753080
    174 O23         0.3750    1.2610   -2.0040 oh        1 MOL     -0.885025
    175 H82        -0.2680    0.7020   -2.4490 ho        1 MOL      0.433042
    176 H83        -0.1330    1.9990   -1.6680 ho        1 MOL      0.433042
    177 O24         1.2700   -1.9190   -1.6180 oh        1 MOL     -0.885025
    178 H84         1.8100   -1.9290   -2.4130 ho        1 MOL      0.433042
    179 H85         0.3920   -2.1210   -1.9270 ho        1 MOL      0.433042
    180 O25         3.4970    2.2970   -2.8080 oh        1 MOL     -0.885025
    181 H86         4.3510    2.5880   -3.1200 ho        1 MOL      0.433042
    182 H87         2.8980    2.9930   -3.0750 ho        1 MOL      0.433042
@<TRIPOS>BOND
     1    1    2 1   
     2    1    4 1   
     3    1    5 1   
     4    1    6 1   
     5    2    3 2   
     6    2    7 1   
     7    7    8 1   
     8    7   15 1   
     9    8    9 1   
    10    8   11 1   
    11    8   16 1   
    12    9   10 2   
    13    9   19 1   
    14   11   12 1   
    15   11   17 1   
    16   11   18 1   
    17   12   13 1   
    18   12   14 1   
    19   19   20 1   
    20   19   28 1   
    21   20   21 1   
    22   20   23 1   
    23   20   29 1   
    24   21   22 2   
    25   21   41 1   
    26   23   24 1   
    27   23   30 1   
    28   23   31 1   
    29   24   25 1   
    30   24   32 1   
    31   24   33 1   
    32   25   26 1   
    33   25   34 1   
    34   25   35 1   
    35   26   27 1   
    36   26   36 1   
    37   26   37 1   
    38   27   38 1   
    39   27   39 1   
    40   27   40 1   
    41   41   42 1   
    42   41   49 1   
    43   42   43 1   
    44   42   45 1   
    45   42   50 1   
    46   43   44 2   
    47   43   53 1   
    48   45   46 1   
    49   45   51 1   
    50   45   52 1   
    51   46   47 1   
    52   46   48 1   
    53   53   54 1   
    54   53   57 1   
    55   54   55 1   
    56   54   58 1   
    57   54   59 1   
    58   55   56 2   
    59   55   60 1   
    60   60   61 1   
    61   60   68 1   
    62   61   62 1   
    63   61   64 1   
    64   61   69 1   
    65   62   63 2   
    66   62   74 1   
    67   64   65 1   
    68   64   70 1   
    69   64   71 1   
    70   65   66 1   
    71   65   67 2   
    72   66   72 1   
    73   66   73 1   
    74   74   75 1   
    75   74   78 1   
    76   75   76 1   
    77   75   79 1   
    78   75   80 1   
    79   76   77 2   
    80   76   81 1   
    81   81   82 1   
    82   81   93 1   
    83   82   83 1   
    84   82   85 1   
    85   82   94 1   
    86   83   84 2   
    87   83  102 1   
    88   85   86 1   
    89   85   95 1   
    90   85   96 1   
    91   86   87 ar  
    92   86   88 ar  
    93   87   89 ar  
    94   87   97 1   
    95   88   90 ar  
    96   88   98 1   
    97   89   91 ar  
    98   89   99 1   
    99   90   91 ar  
   100   90  100 1   
   101   91   92 1   
   102   92  101 1   
   103  102  103 1   
   104  102  110 1   
   105  103  104 1   
   106  103  106 1   
   107  103  111 1   
   108  104  105 2   
   109  104  121 1   
   110  106  107 1   
   111  106  108 1   
   112  106  112 1   
   113  107  109 1   
   114  107  113 1   
   115  107  114 1   
   116  108  115 1   
   117  108  116 1   
   118  108  117 1   
   119  109  118 1   
   120  109  119 1   
   121  109  120 1   
   122  121  122 1   
   123  121  127 1   
   124  122  123 1   
   125  122  125 1   
   126  122  128 1   
   127  123  124 2   
   128  123  132 1   
   129  125  126 1   
   130  125  129 1   
   131  125  130 1   
   132  126  131 1   
   133  132  133 1   
   134  132  137 1   
   135  133  134 1   
   136  133  136 1   
   137  133  138 1   
   138  134  135 2   
   139  134  142 1   
   140  136  139 1   
   141  136  140 1   
   142  136  141 1   
   143  142  143 1   
   144  142  147 1   
   145  143  144 1   
   146  143  146 1   
   147  143  148 1   
   148  144  145 2   
   149  144  152 1   
   150  146  149 1   
   151  146  150 1   
   152  146  151 1   
   153  152  153 1   
   154  152  161 1   
   155  153  154 1   
   156  153  156 1   
   157  153  162 1   
   158  154  155 2   
   159  154  167 1   
   160  156  157 1   
   161  156  163 1   
   162  156  164 1   
   163  157  158 1   
   164  157  165 1   
   165  157  166 1   
   166  158  159 1   
   167  158  160 1   
   168  167  168 1   
   169  167  172 1   
   170  168  169 1   
   171  168  170 1   
   172  168  171 1   
   173  174  175 1   
   174  174  176 1   
   175  177  178 1   
   176  177  179 1   
   177  180  181 1   
   178  180  182 1   
@<TRIPOS>SUBSTRUCTURE
     1 MOL         1 TEMP              0 ****  ****    0 ROOT
