@<TRIPOS>MOLECULE
MOL
  191   184     1     0     0
SMALL
resp


@<TRIPOS>ATOM
      1 C1          6.4220   -3.2160   -3.1570 c3        1 MOL     -0.438783
      2 C2          6.8620   -2.5410   -1.8470 c         1 MOL      0.642169
      3 O1          6.1780   -1.7450   -1.1810 o         1 MOL     -0.539526
      4 H1          7.1620   -3.0200   -3.9320 hc        1 MOL      0.120910
      5 H2          6.3360   -4.2920   -3.0020 hc        1 MOL      0.120910
      6 H3          5.4570   -2.8160   -3.4670 hc        1 MOL      0.120910
      7 N1          8.1000   -2.9080   -1.4100 n         1 MOL     -0.686098
      8 C3          8.7610   -2.5220   -0.1570 c3        1 MOL      0.467189
      9 C4          8.7380   -1.0060    0.3020 c         1 MOL      0.366946
     10 O2          8.6870   -0.6110    1.4770 o         1 MOL     -0.439161
     11 C5          8.2380   -3.5650    0.8370 c3        1 MOL     -0.288341
     12 C6          9.1340   -3.6310    2.0760 c         1 MOL      0.650839
     13 O3          8.6210   -3.6850    3.2360 o         1 MOL     -0.646419
     14 O4         10.3810   -3.6400    1.9200 o         1 MOL     -0.646419
     15 H4          8.5170   -3.6720   -1.9270 hn        1 MOL      0.342958
     16 H5          9.8070   -2.7950   -0.2450 h1        1 MOL     -0.061771
     17 H6          8.2750   -4.5240    0.3260 hc        1 MOL      0.083158
     18 H7          7.2080   -3.3390    1.1350 hc        1 MOL      0.083158
     19 N2          8.6940   -0.0300   -0.6250 n         1 MOL     -0.594645
     20 C7          8.5600    1.4350   -0.3730 c3        1 MOL      0.163347
     21 C8          7.1540    2.0610   -0.3740 c         1 MOL      0.539315
     22 O5          7.0150    3.2820   -0.4200 o         1 MOL     -0.577483
     23 C9          9.6190    2.3060   -1.1740 c3        1 MOL      0.049852
     24 C10        11.0120    1.6330   -1.0000 c3        1 MOL     -0.027647
     25 C11        12.0720    2.6660   -1.3470 c3        1 MOL     -0.158260
     26 C12        13.5090    2.2300   -0.9340 c3        1 MOL     -0.052349
     27 N3         14.4900    3.2610   -1.2430 n4        1 MOL     -0.034170
     28 H8          8.8410   -0.2810   -1.5860 hn        1 MOL      0.284213
     29 H9          8.8540    1.6340    0.6600 h1        1 MOL      0.092780
     30 H10         9.6270    3.2420   -0.6300 hc        1 MOL     -0.001996
     31 H11         9.3060    2.4660   -2.2190 hc        1 MOL     -0.001996
     32 H12        11.1400    0.7550   -1.6300 hc        1 MOL      0.054266
     33 H13        11.1280    1.3460    0.0380 hc        1 MOL      0.054266
     34 H14        11.8280    3.5710   -0.7720 hc        1 MOL      0.063611
     35 H15        11.9490    3.0190   -2.3730 hc        1 MOL      0.063611
     36 H16        13.7540    1.2560   -1.3540 hx        1 MOL      0.105555
     37 H17        13.5170    2.1380    0.1540 hx        1 MOL      0.105555
     38 H18        14.2380    4.1320   -0.8130 hn        1 MOL      0.180154
     39 H19        15.4650    3.0630   -1.0500 hn        1 MOL      0.180154
     40 H20        14.5240    3.5220   -2.2260 hn        1 MOL      0.180154
     41 N4          6.0340    1.2790   -0.3740 n         1 MOL     -0.425877
     42 C13         4.6710    1.7130   -0.4300 c3        1 MOL     -0.139840
     43 C14         4.1230    2.3260    0.9430 c         1 MOL      0.687966
     44 O6          4.2100    1.7060    1.9880 o         1 MOL     -0.498615
     45 C15         3.8360    0.5750   -0.9560 c3        1 MOL      0.067507
     46 C16         2.4050    0.9010   -1.3680 c         1 MOL      0.647817
     47 O7          1.9840    0.7920   -2.5500 o         1 MOL     -0.786381
     48 O8          1.6800    1.2110   -0.4360 o         1 MOL     -0.786381
     49 H21         6.1520    0.2860   -0.5170 hn        1 MOL      0.312438
     50 H22         4.6210    2.4250   -1.2560 h1        1 MOL      0.059428
     51 H23         3.8150   -0.2410   -0.2270 hc        1 MOL      0.007625
     52 H24         4.3850    0.1030   -1.7750 hc        1 MOL      0.007625
     53 N5          3.5270    3.5070    0.8360 n         1 MOL     -0.359205
     54 C17         3.3270    4.3070    1.9870 c3        1 MOL     -0.173457
     55 C18         2.2850    3.7550    2.9760 c         1 MOL      0.504713
     56 O9          2.1870    4.1070    4.1430 o         1 MOL     -0.553606
     57 H25         3.3740    4.0370   -0.0070 hn        1 MOL      0.259031
     58 H26         2.9280    5.2600    1.6610 h1        1 MOL      0.118125
     59 H27         4.2790    4.5090    2.4790 h1        1 MOL      0.118125
     60 N6          1.5990    2.7140    2.5730 n         1 MOL     -0.296431
     61 C19         0.7430    1.9340    3.4340 c3        1 MOL      0.230281
     62 C20         0.9810    0.4160    3.3100 c         1 MOL      0.314653
     63 O10         0.1010   -0.4430    3.4550 o         1 MOL     -0.485291
     64 C21        -0.7170    2.3060    3.1320 c3        1 MOL     -0.355204
     65 C22        -1.0110    3.7950    3.2080 c         1 MOL      0.692068
     66 N7         -1.0240    4.2700    4.4080 n         1 MOL     -0.761409
     67 O11        -1.2670    4.5310    2.2260 o         1 MOL     -0.613510
     68 H28         1.6150    2.2980    1.6580 hn        1 MOL      0.141303
     69 H29         0.8090    2.1910    4.4900 h1        1 MOL      0.053935
     70 H30        -1.2550    1.8120    3.9440 hc        1 MOL      0.113528
     71 H31        -1.0430    2.0450    2.1190 hc        1 MOL      0.113528
     72 H32        -0.7790    3.7550    5.2450 hn        1 MOL      0.378009
     73 H33        -1.2760    5.2380    4.5190 hn        1 MOL      0.378009
     74 N8          2.2160    0.0150    3.0200 n         1 MOL     -0.217175
     75 C23         2.6250   -1.3860    3.2200 c3        1 MOL     -0.163213
     76 C24         2.0290   -2.3350    2.1330 c         1 MOL      0.604994
     77 O12         2.2250   -3.5160    2.3500 o         1 MOL     -0.532035
     78 H34         2.9130    0.7350    2.8830 hn        1 MOL      0.209065
     79 H35         2.3380   -1.6870    4.2270 h1        1 MOL      0.125020
     80 H36         3.7050   -1.4520    3.2550 h1        1 MOL      0.125020
     81 N9          1.2160   -1.8140    1.1670 n         1 MOL     -0.519591
     82 C25         0.5720   -2.6080    0.1210 c3        1 MOL     -0.058084
     83 C26        -0.7690   -1.9300   -0.3100 c         1 MOL      0.231905
     84 O13        -0.7470   -0.7300   -0.5920 o         1 MOL     -0.460028
     85 C27         1.6190   -2.8250   -1.0030 c3        1 MOL     -0.260811
     86 C28         1.0220   -3.4130   -2.2450 ca        1 MOL      0.061537
     87 C29         0.4730   -4.7360   -2.2210 ca        1 MOL     -0.140654
     88 C30         0.9710   -2.6520   -3.4240 ca        1 MOL     -0.140654
     89 C31        -0.1610   -5.3000   -3.3750 ca        1 MOL     -0.308738
     90 C32         0.2990   -3.2200   -4.5540 ca        1 MOL     -0.308738
     91 C33        -0.1700   -4.5590   -4.5790 ca        1 MOL      0.349118
     92 O14        -0.8270   -5.0130   -5.5900 oh        1 MOL     -0.409754
     93 H37         1.2720   -0.8280    0.9670 hn        1 MOL      0.412969
     94 H38         0.4740   -3.5990    0.5580 h1        1 MOL      0.107663
     95 H39         2.3640   -3.5710   -0.7000 hc        1 MOL      0.152527
     96 H40         2.0770   -1.9250   -1.3990 hc        1 MOL      0.152527
     97 H41         0.5010   -5.3480   -1.3290 ha        1 MOL      0.136684
     98 H42         1.3550   -1.6540   -3.5390 ha        1 MOL      0.136684
     99 H43        -0.6830   -6.2410   -3.3420 ha        1 MOL      0.140330
    100 H44         0.2520   -2.6730   -5.4750 ha        1 MOL      0.140330
    101 H45        -0.4870   -4.5730   -6.3760 ho        1 MOL      0.328491
    102 N10        -1.7480   -2.6900   -0.2020 n         1 MOL      0.000859
    103 C34        -3.1890   -2.2410   -0.2800 c3        1 MOL     -0.029045
    104 C35        -3.5160   -1.6120    1.0870 c         1 MOL      0.277544
    105 O15        -4.1410   -0.5260    0.9940 o         1 MOL     -0.522265
    106 C36        -4.0610   -3.4450   -0.6210 c3        1 MOL     -0.169208
    107 C37        -3.5690   -4.1430   -1.8520 c3        1 MOL      0.290593
    108 C38        -5.5270   -3.0280   -0.8110 c3        1 MOL     -0.302849
    109 C39        -3.1510   -3.2580   -3.0050 c3        1 MOL     -0.336400
    110 H46        -1.5940   -3.6320    0.1450 hn        1 MOL      0.177875
    111 H47        -3.2220   -1.4770   -1.0570 h1        1 MOL      0.222114
    112 H48        -3.9570   -4.1830    0.1710 hc        1 MOL      0.030819
    113 H49        -4.1850   -4.9490   -2.2280 hc        1 MOL     -0.013127
    114 H50        -2.6840   -4.7060   -1.5330 hc        1 MOL     -0.013127
    115 H51        -5.5060   -2.0970   -1.3910 hc        1 MOL      0.100377
    116 H52        -6.1870   -3.7700   -1.2620 hc        1 MOL      0.100377
    117 H53        -5.9620   -2.7350    0.1440 hc        1 MOL      0.100377
    118 H54        -2.8430   -3.9580   -3.7900 hc        1 MOL      0.063413
    119 H55        -3.9990   -2.7190   -3.4120 hc        1 MOL      0.063413
    120 H56        -2.4280   -2.5170   -2.6770 hc        1 MOL      0.063413
    121 N11        -3.0420   -2.0810    2.2440 n         1 MOL     -0.180910
    122 C40        -3.3130   -1.4130    3.5520 c3        1 MOL     -0.100081
    123 C41        -4.8720   -1.1170    3.8240 c         1 MOL      0.550517
    124 O16        -5.2490   -0.1630    4.4870 o         1 MOL     -0.514034
    125 C42        -2.7370   -2.2100    4.7640 c3        1 MOL      0.164717
    126 O17        -3.2480   -3.5580    4.7000 oh        1 MOL     -0.669809
    127 H57        -2.7640   -3.0460    2.1990 hn        1 MOL      0.261628
    128 H58        -2.7820   -0.4740    3.6820 h1        1 MOL      0.070026
    129 H59        -3.1480   -1.7410    5.6570 h1        1 MOL      0.047844
    130 H60        -1.6450   -2.1310    4.7640 h1        1 MOL      0.047844
    131 H61        -2.9830   -4.0170    5.4900 ho        1 MOL      0.434544
    132 N12        -5.7110   -1.9890    3.2620 n         1 MOL     -0.303559
    133 C43        -7.2400   -2.1100    3.4150 c3        1 MOL      0.067054
    134 C44        -7.9510   -0.8420    3.0220 c         1 MOL      0.641537
    135 O18        -9.0420   -0.6190    3.5720 o         1 MOL     -0.548424
    136 C45        -7.6300   -2.7190    4.8200 c3        1 MOL     -0.531543
    137 H62        -5.2900   -2.8420    2.9290 hn        1 MOL      0.245844
    138 H63        -7.5080   -2.8530    2.6620 h1        1 MOL      0.088671
    139 H64        -8.7140   -2.8020    4.8240 hc        1 MOL      0.161154
    140 H65        -7.3580   -3.7590    4.9190 hc        1 MOL      0.161154
    141 H66        -7.3320   -1.9610    5.5500 hc        1 MOL      0.161154
    142 N13        -7.4800    0.0460    2.1130 n         1 MOL     -0.779286
    143 C46        -8.1770    1.1510    1.5330 c3        1 MOL      0.582457
    144 C47        -8.3250    0.9640    0.0200 c         1 MOL      0.506959
    145 O19        -7.6570    0.0800   -0.5170 o         1 MOL     -0.501979
    146 C48        -7.4380    2.4080    1.9390 c3        1 MOL     -0.449227
    147 H67        -6.4790   -0.0140    1.9630 hn        1 MOL      0.324131
    148 H68        -9.2100    1.1580    1.8660 h1        1 MOL     -0.049107
    149 H69        -6.3970    2.4310    1.6330 hc        1 MOL      0.119555
    150 H70        -7.9980    3.2510    1.5280 hc        1 MOL      0.119555
    151 H71        -7.5220    2.5070    3.0150 hc        1 MOL      0.119555
    152 N14        -9.2080    1.6880   -0.6030 n         1 MOL     -0.681931
    153 C49        -9.4980    1.5620   -2.0260 c3        1 MOL      0.356830
    154 C50        -9.8200    0.1750   -2.5300 c         1 MOL      0.388145
    155 O20        -9.6680   -0.1750   -3.6830 o         1 MOL     -0.505871
    156 C51        -8.5400    2.3670   -2.9070 c3        1 MOL      0.029881
    157 C52        -8.1730    3.7880   -2.3300 c3        1 MOL     -0.048544
    158 C53        -7.5470    4.5590   -3.5300 c         1 MOL      0.630541
    159 O21        -8.0430    5.6650   -3.8120 o         1 MOL     -0.674474
    160 O22        -6.6170    4.0000   -4.1180 o         1 MOL     -0.674474
    161 H72        -9.7020    2.4460   -0.1480 hn        1 MOL      0.328455
    162 H73       -10.4790    2.0270   -2.1140 h1        1 MOL     -0.010373
    163 H74        -9.1560    2.4770   -3.7880 hc        1 MOL     -0.000196
    164 H75        -7.6790    1.7220   -3.0330 hc        1 MOL     -0.000196
    165 H76        -7.3880    3.6250   -1.5850 hc        1 MOL     -0.043759
    166 H77        -9.0650    4.1760   -1.8450 hc        1 MOL     -0.043759
    167 N15       -10.5520   -0.6220   -1.7150 n         1 MOL     -0.375453
    168 C54       -10.7680   -2.0570   -1.8850 c3        1 MOL     -0.004714
    169 H78       -11.7690   -2.3160   -1.5420 h1        1 MOL      0.050096
    170 H79       -10.6670   -2.3180   -2.9390 h1        1 MOL      0.050096
    171 H80       -10.0300   -2.6080   -1.3020 h1        1 MOL      0.050096
    172 H81       -10.8020   -0.3390   -0.7830 hn        1 MOL      0.239955
    173 Ca1        -0.4280    1.6810   -2.0670 Ca        1 MOL      1.732863
    174 O23        -2.3180    0.0590   -3.3120 oh        1 MOL     -0.796588
    175 H82        -3.1430    0.4450   -3.6200 ho        1 MOL      0.403867
    176 H83        -1.9870   -0.4240   -4.0610 ho        1 MOL      0.403867
    177 O24         1.1120    3.8920   -2.7750 oh        1 MOL     -0.796588
    178 H84         1.1350    4.4570   -3.5450 ho        1 MOL      0.403867
    179 H85         2.0350    3.7650   -2.5440 ho        1 MOL      0.403867
    180 O25        -0.3500    1.6800   -4.7540 oh        1 MOL     -0.796588
    181 H86        -1.0480    1.1720   -5.1750 ho        1 MOL      0.403867
    182 H87         0.3610    1.6980   -5.3870 ho        1 MOL      0.403867
    183 O26        -0.4110    3.8500   -0.4740 oh        1 MOL     -0.796588
    184 H88         0.0980    4.6380   -0.6360 ho        1 MOL      0.403867
    185 H89        -0.7320    3.9520    0.4230 ho        1 MOL      0.403867
    186 O27        -2.0930    3.4290   -2.8880 oh        1 MOL     -0.796588
    187 H90        -1.8590    4.3470   -2.8140 ho        1 MOL      0.403867
    188 H91        -2.9010    3.4340   -3.4010 ho        1 MOL      0.403867
    189 O28        -2.3290    1.5580   -0.0520 oh        1 MOL     -0.796588
    190 H92        -3.1960    1.9310    0.1000 ho        1 MOL      0.403867
    191 H93        -2.2850    0.8000    0.5230 ho        1 MOL      0.403867
@<TRIPOS>BOND
     1    1    2 1   
     2    1    4 1   
     3    1    5 1   
     4    1    6 1   
     5    2    3 2   
     6    2    7 1   
     7    7    8 1   
     8    7   15 1   
     9    8    9 1   
    10    8   11 1   
    11    8   16 1   
    12    9   10 2   
    13    9   19 1   
    14   11   12 1   
    15   11   17 1   
    16   11   18 1   
    17   12   13 1   
    18   12   14 1   
    19   19   20 1   
    20   19   28 1   
    21   20   21 1   
    22   20   23 1   
    23   20   29 1   
    24   21   22 2   
    25   21   41 1   
    26   23   24 1   
    27   23   30 1   
    28   23   31 1   
    29   24   25 1   
    30   24   32 1   
    31   24   33 1   
    32   25   26 1   
    33   25   34 1   
    34   25   35 1   
    35   26   27 1   
    36   26   36 1   
    37   26   37 1   
    38   27   38 1   
    39   27   39 1   
    40   27   40 1   
    41   41   42 1   
    42   41   49 1   
    43   42   43 1   
    44   42   45 1   
    45   42   50 1   
    46   43   44 2   
    47   43   53 1   
    48   45   46 1   
    49   45   51 1   
    50   45   52 1   
    51   46   47 1   
    52   46   48 1   
    53   53   54 1   
    54   53   57 1   
    55   54   55 1   
    56   54   58 1   
    57   54   59 1   
    58   55   56 2   
    59   55   60 1   
    60   60   61 1   
    61   60   68 1   
    62   61   62 1   
    63   61   64 1   
    64   61   69 1   
    65   62   63 2   
    66   62   74 1   
    67   64   65 1   
    68   64   70 1   
    69   64   71 1   
    70   65   66 1   
    71   65   67 2   
    72   66   72 1   
    73   66   73 1   
    74   74   75 1   
    75   74   78 1   
    76   75   76 1   
    77   75   79 1   
    78   75   80 1   
    79   76   77 2   
    80   76   81 1   
    81   81   82 1   
    82   81   93 1   
    83   82   83 1   
    84   82   85 1   
    85   82   94 1   
    86   83   84 2   
    87   83  102 1   
    88   85   86 1   
    89   85   95 1   
    90   85   96 1   
    91   86   87 ar  
    92   86   88 ar  
    93   87   89 ar  
    94   87   97 1   
    95   88   90 ar  
    96   88   98 1   
    97   89   91 ar  
    98   89   99 1   
    99   90   91 ar  
   100   90  100 1   
   101   91   92 1   
   102   92  101 1   
   103  102  103 1   
   104  102  110 1   
   105  103  104 1   
   106  103  106 1   
   107  103  111 1   
   108  104  105 2   
   109  104  121 1   
   110  106  107 1   
   111  106  108 1   
   112  106  112 1   
   113  107  109 1   
   114  107  113 1   
   115  107  114 1   
   116  108  115 1   
   117  108  116 1   
   118  108  117 1   
   119  109  118 1   
   120  109  119 1   
   121  109  120 1   
   122  121  122 1   
   123  121  127 1   
   124  122  123 1   
   125  122  125 1   
   126  122  128 1   
   127  123  124 2   
   128  123  132 1   
   129  125  126 1   
   130  125  129 1   
   131  125  130 1   
   132  126  131 1   
   133  132  133 1   
   134  132  137 1   
   135  133  134 1   
   136  133  136 1   
   137  133  138 1   
   138  134  135 2   
   139  134  142 1   
   140  136  139 1   
   141  136  140 1   
   142  136  141 1   
   143  142  143 1   
   144  142  147 1   
   145  143  144 1   
   146  143  146 1   
   147  143  148 1   
   148  144  145 2   
   149  144  152 1   
   150  146  149 1   
   151  146  150 1   
   152  146  151 1   
   153  152  153 1   
   154  152  161 1   
   155  153  154 1   
   156  153  156 1   
   157  153  162 1   
   158  154  155 2   
   159  154  167 1   
   160  156  157 1   
   161  156  163 1   
   162  156  164 1   
   163  157  158 1   
   164  157  165 1   
   165  157  166 1   
   166  158  159 1   
   167  158  160 1   
   168  167  168 1   
   169  167  172 1   
   170  168  169 1   
   171  168  170 1   
   172  168  171 1   
   173  174  175 1   
   174  174  176 1   
   175  177  178 1   
   176  177  179 1   
   177  180  181 1   
   178  180  182 1   
   179  183  184 1   
   180  183  185 1   
   181  186  187 1   
   182  186  188 1   
   183  189  190 1   
   184  189  191 1   
@<TRIPOS>SUBSTRUCTURE
     1 MOL         1 TEMP              0 ****  ****    0 ROOT
