@<TRIPOS>MOLECULE
MOL
  198   191     1     0     0
SMALL
resp


@<TRIPOS>ATOM
      1 C1         -2.9940    2.2020    3.8000 c3        1 MOL     -0.378414
      2 C2         -4.2740    1.1980    3.7240 c         1 MOL      0.611857
      3 O1         -4.3640    0.1300    4.3410 o         1 MOL     -0.552094
      4 H1         -2.4080    2.1130    2.8850 hc        1 MOL      0.104879
      5 H2         -3.3430    3.2290    3.9080 hc        1 MOL      0.104879
      6 H3         -2.3730    1.9360    4.6550 hc        1 MOL      0.104879
      7 N1         -5.3490    1.7610    3.2010 n         1 MOL     -0.495391
      8 C3         -6.7220    1.2410    3.1790 c3        1 MOL      0.193970
      9 C4         -6.8730    0.1490    2.0940 c         1 MOL      0.457076
     10 O2         -5.8700   -0.3750    1.5870 o         1 MOL     -0.454739
     11 C5         -7.7630    2.3110    3.0990 c3        1 MOL     -0.299630
     12 C6         -7.6640    3.1820    1.8570 c         1 MOL      0.623010
     13 O3         -7.1750    4.3090    1.9700 o         1 MOL     -0.675573
     14 O4         -8.1070    2.8290    0.7050 o         1 MOL     -0.675573
     15 H4         -5.0980    2.5390    2.6160 hn        1 MOL      0.292801
     16 H5         -6.9090    0.7790    4.1560 h1        1 MOL      0.059790
     17 H6         -7.8220    2.9030    4.0070 hc        1 MOL      0.072180
     18 H7         -8.7310    1.8120    3.0610 hc        1 MOL      0.072180
     19 N2         -8.0750   -0.2200    1.6700 n         1 MOL     -0.467673
     20 C7         -8.4130   -1.2290    0.5830 c3        1 MOL     -0.092589
     21 C8         -8.0790   -0.9960   -0.8610 c         1 MOL      0.422201
     22 O5         -8.2710   -1.8420   -1.6940 o         1 MOL     -0.509190
     23 C9         -9.7380   -1.9010    0.9860 c3        1 MOL     -0.133591
     24 C10       -10.9730   -0.8780    0.8840 c3        1 MOL      0.046642
     25 C11       -12.1170   -1.4910    1.7460 c3        1 MOL      0.124209
     26 C12       -13.4600   -0.6790    1.7740 c3        1 MOL     -0.160433
     27 N3        -13.4190    0.6720    2.3720 n4        1 MOL     -0.222976
     28 H8         -8.8240    0.1020    2.2560 hn        1 MOL      0.253866
     29 H9         -7.6740   -2.0200    0.6780 h1        1 MOL      0.165659
     30 H10        -9.6540   -2.3450    1.9850 hc        1 MOL      0.078190
     31 H11        -9.9220   -2.7890    0.3850 hc        1 MOL      0.078190
     32 H12       -11.4310   -0.8500   -0.1000 hc        1 MOL      0.036364
     33 H13       -10.6250    0.0750    1.2930 hc        1 MOL      0.036364
     34 H14       -11.7340   -1.3900    2.7550 hc        1 MOL     -0.010445
     35 H15       -12.3470   -2.5150    1.4520 hc        1 MOL     -0.010445
     36 H16       -14.0890   -1.3640    2.3290 hx        1 MOL      0.126760
     37 H17       -13.8720   -0.4560    0.7850 hx        1 MOL      0.126760
     38 H18       -12.9880    0.6750    3.2810 hn        1 MOL      0.258763
     39 H19       -12.9540    1.3400    1.7680 hn        1 MOL      0.258763
     40 H20       -14.3690    1.0030    2.4860 hn        1 MOL      0.258763
     41 N4         -7.5870    0.2100   -1.1640 n         1 MOL     -0.135539
     42 C13        -6.7380    0.4970   -2.3200 c3        1 MOL     -0.054228
     43 C14        -5.5320    1.3830   -1.9210 c         1 MOL      0.450668
     44 O6         -5.6800    2.3050   -1.1080 o         1 MOL     -0.558965
     45 C15        -7.5630    1.1120   -3.4420 c3        1 MOL     -0.195220
     46 C16        -8.5600    2.1960   -3.0080 c         1 MOL      0.563317
     47 O7         -9.7300    2.0750   -3.3090 o         1 MOL     -0.650456
     48 O8         -8.1610    3.1740   -2.3790 o         1 MOL     -0.650456
     49 H21        -7.5560    0.8750   -0.4100 hn        1 MOL      0.218854
     50 H22        -6.3680   -0.4940   -2.5830 h1        1 MOL      0.128401
     51 H23        -8.1120    0.2960   -3.9130 hc        1 MOL      0.066205
     52 H24        -7.0220    1.6180   -4.2340 hc        1 MOL      0.066205
     53 N5         -4.3250    1.0740   -2.4940 n         1 MOL     -0.419277
     54 C17        -4.0060    0.0330   -3.5210 c3        1 MOL     -0.010429
     55 C18        -3.9750   -1.4370   -2.9190 c         1 MOL      0.549887
     56 O9         -4.3140   -1.6650   -1.7720 o         1 MOL     -0.488435
     57 H25        -3.5620    1.7280   -2.3680 hn        1 MOL      0.319289
     58 H26        -3.0810    0.2040   -4.0670 h1        1 MOL      0.053232
     59 H27        -4.8350    0.1010   -4.2140 h1        1 MOL      0.053232
     60 N6         -3.4890   -2.3930   -3.7450 n         1 MOL     -0.476176
     61 C19        -3.2020   -3.7700   -3.1740 c3        1 MOL      0.005216
     62 C20        -1.7500   -3.8630   -2.7740 c         1 MOL      0.568173
     63 O10        -1.0560   -2.8690   -2.7130 o         1 MOL     -0.489746
     64 C21        -3.6700   -4.7490   -4.2950 c3        1 MOL     -0.145501
     65 C22        -2.9730   -4.7240   -5.6820 c         1 MOL      0.637015
     66 O11        -2.1860   -3.7820   -5.9540 o         1 MOL     -0.635858
     67 O12        -3.2780   -5.6230   -6.5190 o         1 MOL     -0.635858
     68 H28        -3.1870   -2.1760   -4.6850 hn        1 MOL      0.292765
     69 H29        -3.9170   -4.0220   -2.4000 h1        1 MOL      0.073659
     70 H30        -4.7520   -4.6920   -4.4190 hc        1 MOL      0.026387
     71 H31        -3.5180   -5.7760   -3.9540 hc        1 MOL      0.026387
     72 N7         -1.3560   -5.0870   -2.3900 n         1 MOL     -0.348978
     73 C23         0.0770   -5.3920   -2.1280 c3        1 MOL     -0.432359
     74 C24         0.4950   -5.1540   -0.7290 c         1 MOL      0.603856
     75 O13         1.4780   -5.7750   -0.2100 o         1 MOL     -0.611235
     76 H32        -2.0270   -5.8330   -2.3240 hn        1 MOL      0.297772
     77 H33         0.6610   -4.7510   -2.7920 h1        1 MOL      0.197853
     78 H34         0.1550   -6.4760   -2.2740 h1        1 MOL      0.197853
     79 N8         -0.2610   -4.3600    0.0090 n         1 MOL     -0.356690
     80 C25        -0.3110   -4.3950    1.4970 c3        1 MOL     -0.016001
     81 C26         0.1070   -3.0090    1.9310 c         1 MOL      0.493965
     82 O14        -0.4060   -1.9900    1.4560 o         1 MOL     -0.499827
     83 C27        -1.7090   -4.7440    2.0090 c3        1 MOL      0.527830
     84 C28        -1.9970   -6.2650    1.8990 c3        1 MOL     -0.265362
     85 O15        -1.9070   -4.4580    3.3170 oh        1 MOL     -0.670155
     86 H35        -0.9860   -3.9740   -0.5810 hn        1 MOL      0.163746
     87 H36         0.3870   -5.1750    1.8210 h1        1 MOL      0.088357
     88 H37        -2.5060   -4.2140    1.4870 h1        1 MOL     -0.035363
     89 H38        -2.4080   -3.6330    3.4030 ho        1 MOL      0.418011
     90 H39        -2.9500   -6.5050    2.3770 hc        1 MOL      0.059273
     91 H40        -2.1900   -6.5210    0.8520 hc        1 MOL      0.059273
     92 H41        -1.1870   -6.8020    2.3950 hc        1 MOL      0.059273
     93 N9          0.9370   -2.8830    2.9250 n         1 MOL     -0.459259
     94 C29         1.4640   -1.5320    3.2950 c3        1 MOL     -0.149591
     95 C30         2.5100   -1.0600    2.2650 c         1 MOL      0.515977
     96 O16         2.3780    0.0690    1.7250 o         1 MOL     -0.529005
     97 C31         1.9570   -1.5570    4.7010 c3        1 MOL      0.088854
     98 C32         1.1210   -2.3660    5.7120 c3        1 MOL      0.129200
     99 C33         2.2090   -0.1270    5.1870 c3        1 MOL     -0.206884
    100 C34        -0.3660   -1.9230    5.9220 c3        1 MOL     -0.265447
    101 H42         1.4420   -3.6790    3.2690 hn        1 MOL      0.294029
    102 H43         0.5820   -0.8850    3.3080 h1        1 MOL      0.177691
    103 H44         2.9320   -2.0380    4.7210 hc        1 MOL     -0.009869
    104 H45         1.5770   -2.3440    6.7010 hc        1 MOL     -0.014667
    105 H46         1.1380   -3.4430    5.5110 hc        1 MOL     -0.014667
    106 H47         3.1010    0.3730    4.8100 hc        1 MOL      0.056798
    107 H48         1.3530    0.4230    4.7790 hc        1 MOL      0.056798
    108 H49         2.1880    0.0260    6.2660 hc        1 MOL      0.056798
    109 H50        -0.8580   -2.6640    6.5540 hc        1 MOL      0.068235
    110 H51        -0.4910   -0.9260    6.3490 hc        1 MOL      0.068235
    111 H52        -0.7860   -1.9500    4.9130 hc        1 MOL      0.068235
    112 N10         3.4320   -1.9280    1.8800 n         1 MOL     -0.328672
    113 C35         4.3880   -2.0000    0.7410 c3        1 MOL     -0.197994
    114 C36         5.7030   -2.6950    1.1250 c         1 MOL      0.734665
    115 O17         5.6550   -3.6320    1.9660 o         1 MOL     -0.580720
    116 C37         3.8310   -2.7830   -0.4450 c3        1 MOL      0.351934
    117 C38         2.5870   -2.0990   -1.1580 c3        1 MOL     -0.344035
    118 O18         4.8000   -2.6280   -1.4000 oh        1 MOL     -0.605366
    119 H53         3.4690   -2.5970    2.6240 hn        1 MOL      0.218916
    120 H54         4.5900   -0.9690    0.4470 h1        1 MOL      0.126914
    121 H55         3.6030   -3.8100   -0.1650 h1        1 MOL      0.037371
    122 H56         4.3970   -2.7980   -2.2640 ho        1 MOL      0.393280
    123 H57         2.4220   -2.5420   -2.1350 hc        1 MOL      0.110982
    124 H58         1.6770   -2.2820   -0.5700 hc        1 MOL      0.110982
    125 H59         2.7990   -1.0490   -1.3210 hc        1 MOL      0.110982
    126 N11         6.7620   -2.3510    0.5160 n         1 MOL     -0.585450
    127 C39         8.0820   -2.8120    0.8770 c3        1 MOL      0.049767
    128 C40         9.0600   -1.5840    0.8000 c         1 MOL      0.643585
    129 O19         9.7570   -1.3640    1.7650 o         1 MOL     -0.577907
    130 C41         8.5820   -3.9800    0.0450 c3        1 MOL      0.350576
    131 C42        10.1030   -4.1130    0.1040 c3        1 MOL     -0.449001
    132 O20         8.1670   -3.8890   -1.3000 oh        1 MOL     -0.623063
    133 H60         6.5860   -1.8320   -0.3300 hn        1 MOL      0.324624
    134 H61         8.1920   -3.0950    1.9320 h1        1 MOL      0.071936
    135 H62         8.1260   -4.9110    0.3940 h1        1 MOL      0.028462
    136 H63         8.6150   -4.5750   -1.7940 ho        1 MOL      0.402456
    137 H64        10.4890   -3.2220   -0.3990 hc        1 MOL      0.109850
    138 H65        10.4080   -4.2170    1.1500 hc        1 MOL      0.109850
    139 H66        10.4470   -4.9610   -0.4880 hc        1 MOL      0.109850
    140 N12         9.2000   -0.8900   -0.3250 n         1 MOL     -0.523331
    141 C43        10.2280    0.2350   -0.4040 c3        1 MOL      0.084068
    142 C44         9.6020    1.5260   -0.9630 c         1 MOL      0.372529
    143 O21         8.7400    1.5490   -1.8580 o         1 MOL     -0.492462
    144 C45        11.3290   -0.2160   -1.3590 c3        1 MOL     -0.076304
    145 C46        12.4880    0.7870   -1.4220 c3        1 MOL     -0.181971
    146 C47        13.4820    0.8260   -0.2750 c3        1 MOL      0.045477
    147 C48        14.7590    1.6840   -0.5250 c3        1 MOL      0.062906
    148 N13        15.6420    1.5730    0.6670 n4        1 MOL     -0.214329
    149 H67         8.7910   -1.2580   -1.1590 hn        1 MOL      0.316562
    150 H68        10.6800    0.5820    0.5220 h1        1 MOL      0.053985
    151 H69        10.9600   -0.4720   -2.3630 hc        1 MOL      0.061179
    152 H70        11.6360   -1.2080   -1.0190 hc        1 MOL      0.061179
    153 H71        12.1160    1.8000   -1.5700 hc        1 MOL      0.093697
    154 H72        12.9810    0.3970   -2.3140 hc        1 MOL      0.093697
    155 H73        13.9130   -0.1360   -0.0010 hc        1 MOL     -0.010115
    156 H74        12.8860    1.1480    0.5800 hc        1 MOL     -0.010115
    157 H75        14.3610    2.6800   -0.6930 hx        1 MOL      0.053739
    158 H76        15.1380    1.1640   -1.4090 hx        1 MOL      0.053739
    159 H77        15.7790    0.5640    0.7130 hn        1 MOL      0.291179
    160 H78        16.5570    1.9930    0.6230 hn        1 MOL      0.291179
    161 H79        15.2900    1.8960    1.5540 hn        1 MOL      0.291179
    162 N14         9.9290    2.6600   -0.3860 n         1 MOL     -0.253525
    163 C49         9.6860    3.9360   -1.1000 c3        1 MOL      0.180706
    164 C50         8.2740    4.5200   -0.9160 c         1 MOL      0.312817
    165 O22         7.7190    5.1170   -1.8360 o         1 MOL     -0.511506
    166 C51        10.7000    5.0520   -0.7790 c3        1 MOL      0.077826
    167 C52        12.2140    4.5540   -0.7930 c3        1 MOL     -0.061438
    168 C53        13.2360    5.6900   -0.7300 c         1 MOL      0.726916
    169 O23        13.9870    5.7970   -1.7150 o         1 MOL     -0.725035
    170 O24        13.2190    6.3960    0.3000 o         1 MOL     -0.725035
    171 H80        10.5830    2.6780    0.3740 hn        1 MOL      0.265370
    172 H81         9.8950    3.7650   -2.1580 h1        1 MOL      0.057480
    173 H82        10.5240    5.3600    0.2520 hc        1 MOL      0.003324
    174 H83        10.6590    5.8640   -1.5010 hc        1 MOL      0.003324
    175 H84        12.2660    4.0240   -1.7400 hc        1 MOL     -0.069330
    176 H85        12.3400    3.9030    0.0630 hc        1 MOL     -0.069330
    177 N15         7.6190    4.4930    0.2790 n         1 MOL     -0.297280
    178 C54         8.1260    4.1890    1.5990 c3        1 MOL     -0.089871
    179 H86         9.1110    3.7310    1.5130 h1        1 MOL      0.048936
    180 H87         8.2030    5.1090    2.1790 h1        1 MOL      0.048936
    181 H88         7.4480    3.4980    2.1000 h1        1 MOL      0.048936
    182 H89         6.6610    4.8120    0.2400 hn        1 MOL      0.287220
    183 Ca1        -6.9850    4.7460   -0.6770 Ca        1 MOL      1.702219
    184 O25        -8.0450    6.6380   -2.3300 oh        1 MOL     -0.805288
    185 H90        -8.3720    7.5340   -2.2770 ho        1 MOL      0.399680
    186 H91        -7.3480    6.6720   -2.9870 ho        1 MOL      0.399680
    187 O26        -4.5470    5.1910    0.2960 oh        1 MOL     -0.805288
    188 H92        -4.2970    5.4760    1.1740 ho        1 MOL      0.399680
    189 H93        -3.7850    5.3980   -0.2510 ho        1 MOL      0.399680
    190 O27        -9.9500    5.2070   -0.2350 oh        1 MOL     -0.805288
    191 H94       -10.7500    5.2050   -0.7610 ho        1 MOL      0.399680
    192 H95       -10.0020    6.0140    0.2700 ho        1 MOL      0.399680
    193 O28        -7.1870    7.4210    0.4790 oh        1 MOL     -0.805288
    194 H96        -7.9010    7.3130    1.1020 ho        1 MOL      0.399680
    195 H97        -7.3990    8.2180    0.0010 ho        1 MOL      0.399680
    196 O29        -5.4130    5.2050   -2.8870 oh        1 MOL     -0.805288
    197 H98        -5.6760    5.8650   -3.5190 ho        1 MOL      0.399680
    198 H99        -4.9330    4.5500   -3.4080 ho        1 MOL      0.399680
@<TRIPOS>BOND
     1    1    2 1   
     2    1    4 1   
     3    1    5 1   
     4    1    6 1   
     5    2    3 2   
     6    2    7 1   
     7    7    8 1   
     8    7   15 1   
     9    8    9 1   
    10    8   11 1   
    11    8   16 1   
    12    9   10 2   
    13    9   19 1   
    14   11   12 1   
    15   11   17 1   
    16   11   18 1   
    17   12   13 1   
    18   12   14 1   
    19   19   20 1   
    20   19   28 1   
    21   20   21 1   
    22   20   23 1   
    23   20   29 1   
    24   21   22 2   
    25   21   41 1   
    26   23   24 1   
    27   23   30 1   
    28   23   31 1   
    29   24   25 1   
    30   24   32 1   
    31   24   33 1   
    32   25   26 1   
    33   25   34 1   
    34   25   35 1   
    35   26   27 1   
    36   26   36 1   
    37   26   37 1   
    38   27   38 1   
    39   27   39 1   
    40   27   40 1   
    41   41   42 1   
    42   41   49 1   
    43   42   43 1   
    44   42   45 1   
    45   42   50 1   
    46   43   44 2   
    47   43   53 1   
    48   45   46 1   
    49   45   51 1   
    50   45   52 1   
    51   46   47 1   
    52   46   48 1   
    53   53   54 1   
    54   53   57 1   
    55   54   55 1   
    56   54   58 1   
    57   54   59 1   
    58   55   56 2   
    59   55   60 1   
    60   60   61 1   
    61   60   68 1   
    62   61   62 1   
    63   61   64 1   
    64   61   69 1   
    65   62   63 2   
    66   62   72 1   
    67   64   65 1   
    68   64   70 1   
    69   64   71 1   
    70   65   66 1   
    71   65   67 1   
    72   72   73 1   
    73   72   76 1   
    74   73   74 1   
    75   73   77 1   
    76   73   78 1   
    77   74   75 2   
    78   74   79 1   
    79   79   80 1   
    80   79   86 1   
    81   80   81 1   
    82   80   83 1   
    83   80   87 1   
    84   81   82 2   
    85   81   93 1   
    86   83   84 1   
    87   83   85 1   
    88   83   88 1   
    89   84   90 1   
    90   84   91 1   
    91   84   92 1   
    92   85   89 1   
    93   93   94 1   
    94   93  101 1   
    95   94   95 1   
    96   94   97 1   
    97   94  102 1   
    98   95   96 2   
    99   95  112 1   
   100   97   98 1   
   101   97   99 1   
   102   97  103 1   
   103   98  100 1   
   104   98  104 1   
   105   98  105 1   
   106   99  106 1   
   107   99  107 1   
   108   99  108 1   
   109  100  109 1   
   110  100  110 1   
   111  100  111 1   
   112  112  113 1   
   113  112  119 1   
   114  113  114 1   
   115  113  116 1   
   116  113  120 1   
   117  114  115 2   
   118  114  126 1   
   119  116  117 1   
   120  116  118 1   
   121  116  121 1   
   122  117  123 1   
   123  117  124 1   
   124  117  125 1   
   125  118  122 1   
   126  126  127 1   
   127  126  133 1   
   128  127  128 1   
   129  127  130 1   
   130  127  134 1   
   131  128  129 2   
   132  128  140 1   
   133  130  131 1   
   134  130  132 1   
   135  130  135 1   
   136  131  137 1   
   137  131  138 1   
   138  131  139 1   
   139  132  136 1   
   140  140  141 1   
   141  140  149 1   
   142  141  142 1   
   143  141  144 1   
   144  141  150 1   
   145  142  143 2   
   146  142  162 1   
   147  144  145 1   
   148  144  151 1   
   149  144  152 1   
   150  145  146 1   
   151  145  153 1   
   152  145  154 1   
   153  146  147 1   
   154  146  155 1   
   155  146  156 1   
   156  147  148 1   
   157  147  157 1   
   158  147  158 1   
   159  148  159 1   
   160  148  160 1   
   161  148  161 1   
   162  162  163 1   
   163  162  171 1   
   164  163  164 1   
   165  163  166 1   
   166  163  172 1   
   167  164  165 2   
   168  164  177 1   
   169  166  167 1   
   170  166  173 1   
   171  166  174 1   
   172  167  168 1   
   173  167  175 1   
   174  167  176 1   
   175  168  169 1   
   176  168  170 1   
   177  177  178 1   
   178  177  182 1   
   179  178  179 1   
   180  178  180 1   
   181  178  181 1   
   182  184  185 1   
   183  184  186 1   
   184  187  188 1   
   185  187  189 1   
   186  190  191 1   
   187  190  192 1   
   188  193  194 1   
   189  193  195 1   
   190  196  197 1   
   191  196  198 1   
@<TRIPOS>SUBSTRUCTURE
     1 MOL         1 TEMP              0 ****  ****    0 ROOT
