@<TRIPOS>MOLECULE
MOL
  181   177     1     0     0
SMALL
resp


@<TRIPOS>ATOM
      1 C1          0.4780    6.9670   -2.1310 c3        1 MOL     -0.363664
      2 C2          1.8380    6.8350   -1.4520 c         1 MOL      0.708059
      3 O1          2.1080    7.6080   -0.5780 o         1 MOL     -0.595709
      4 H1         -0.0540    7.8210   -1.7140 hc        1 MOL      0.085999
      5 H2          0.6190    7.1140   -3.2020 hc        1 MOL      0.085999
      6 H3         -0.1020    6.0610   -1.9630 hc        1 MOL      0.085999
      7 N1          2.8050    6.0690   -1.9670 n         1 MOL     -0.547120
      8 C3          4.1880    5.9950   -1.4310 c3        1 MOL      0.152833
      9 C4          4.1660    4.8780   -0.3910 c         1 MOL      0.536290
     10 O2          3.6230    3.7200   -0.6110 o         1 MOL     -0.603006
     11 C5          5.1640    5.4700   -2.5420 c3        1 MOL     -0.219621
     12 C6          6.6800    5.6550   -2.1780 c         1 MOL      0.682241
     13 O3          6.9590    6.3090   -1.1150 o         1 MOL     -0.710056
     14 O4          7.5560    5.1000   -2.7970 o         1 MOL     -0.710056
     15 H4          2.4960    5.5920   -2.7960 hn        1 MOL      0.264579
     16 H5          4.4090    6.9350   -0.9240 h1        1 MOL      0.044663
     17 H6          4.9330    6.1560   -3.3590 hc        1 MOL      0.045801
     18 H7          4.9500    4.4720   -2.8980 hc        1 MOL      0.045801
     19 N2          4.8290    5.3150    0.6790 n         1 MOL     -0.391513
     20 C7          4.7690    4.5170    1.9230 c3        1 MOL      0.302431
     21 C8          3.3030    4.0190    2.3000 c         1 MOL      0.390853
     22 O5          2.2760    4.6920    2.1930 o         1 MOL     -0.550417
     23 C9          5.4490    5.3110    3.0140 c3        1 MOL     -0.295758
     24 H8          5.2630    6.2330    0.6520 hn        1 MOL      0.268793
     25 H9          5.3930    3.6460    1.7380 h1        1 MOL      0.009201
     26 H10         6.4180    5.6120    2.6210 hc        1 MOL      0.073101
     27 H11         4.9970    6.2410    3.3630 hc        1 MOL      0.073101
     28 H12         5.5370    4.6980    3.9130 hc        1 MOL      0.073101
     29 N3          3.1090    2.7780    2.7050 n         1 MOL     -0.321578
     30 C10         4.0180    1.7600    3.1970 c3        1 MOL      0.122103
     31 C11         4.4210    0.6170    2.2660 c         1 MOL      0.413746
     32 O6          3.6740    0.3110    1.3310 o         1 MOL     -0.450150
     33 C12         3.5750    1.2020    4.5260 c3        1 MOL     -0.221088
     34 C13         2.2430    0.3700    4.4870 c         1 MOL      0.634724
     35 O7          1.8340   -0.2160    5.4800 o         1 MOL     -0.639570
     36 O8          1.6580    0.2440    3.3680 o         1 MOL     -0.639570
     37 H13         2.1400    2.4780    2.6340 hn        1 MOL      0.267505
     38 H14         4.9330    2.2940    3.4520 h1        1 MOL      0.004197
     39 H15         3.5450    2.0070    5.2660 hc        1 MOL      0.036839
     40 H16         4.3400    0.5800    4.9900 hc        1 MOL      0.036839
     41 N4          5.5210   -0.0590    2.5720 n         1 MOL     -0.372057
     42 C14         6.0370   -1.0910    1.7620 c3        1 MOL      0.085585
     43 C15         7.0040   -0.5950    0.6390 c         1 MOL      0.424261
     44 O9          7.3220    0.5630    0.5700 o         1 MOL     -0.455152
     45 H17         6.1220    0.2710    3.3150 hn        1 MOL      0.269058
     46 H18         5.2110   -1.6280    1.2900 h1        1 MOL      0.031676
     47 H19         6.4450   -1.8390    2.4370 h1        1 MOL      0.031676
     48 N5          7.5290   -1.4200   -0.2260 n         1 MOL     -0.458999
     49 C16         7.2290   -2.8640   -0.4270 c3        1 MOL      0.103260
     50 C17         5.9680   -3.1370   -1.1920 c         1 MOL      0.637542
     51 O10         5.1430   -2.3050   -1.5050 o         1 MOL     -0.514674
     52 C18         8.4530   -3.5350   -1.1260 c3        1 MOL     -0.186489
     53 C19         8.4940   -3.3550   -2.6950 c         1 MOL      0.618191
     54 N6          8.4500   -4.4470   -3.4430 n         1 MOL     -0.797881
     55 O11         8.4970   -2.2280   -3.2480 o         1 MOL     -0.498584
     56 H20         8.1080   -0.9250   -0.8850 hn        1 MOL      0.321604
     57 H21         7.0690   -3.3770    0.5200 h1        1 MOL      0.029066
     58 H22         8.4130   -4.6050   -0.9110 hc        1 MOL      0.049326
     59 H23         9.3490   -3.0720   -0.7310 hc        1 MOL      0.049326
     60 H24         8.3730   -5.3800   -3.0610 hn        1 MOL      0.374552
     61 H25         8.4160   -4.2870   -4.4420 hn        1 MOL      0.374552
     62 N7          5.7820   -4.3480   -1.7290 n         1 MOL     -0.420092
     63 C20         4.7870   -4.6070   -2.7680 c3        1 MOL     -0.200161
     64 C21         3.2640   -4.8390   -2.3050 c         1 MOL      0.548381
     65 O12         2.4970   -5.2040   -3.1790 o         1 MOL     -0.566410
     66 H26         6.5100   -5.0200   -1.5100 hn        1 MOL      0.239564
     67 H27         5.1630   -5.4930   -3.2660 h1        1 MOL      0.133119
     68 H28         4.8350   -3.8250   -3.5320 h1        1 MOL      0.133119
     69 N8          2.8910   -4.8430   -1.0340 n         1 MOL     -0.291234
     70 C22         1.5710   -5.2380   -0.5780 c3        1 MOL      0.101843
     71 C23         0.5390   -4.1340   -0.5890 c         1 MOL      0.586383
     72 O13         0.7590   -2.9740   -0.2340 o         1 MOL     -0.577060
     73 C24         1.6260   -5.7590    0.8890 c3        1 MOL      0.414785
     74 C25         0.3540   -6.3640    1.4840 c3        1 MOL     -0.325871
     75 O14         2.6670   -6.7360    1.1340 oh        1 MOL     -0.686735
     76 H29         3.4900   -4.5740   -0.2610 hn        1 MOL      0.132051
     77 H30         1.1640   -6.0200   -1.2230 h1        1 MOL      0.040783
     78 H31         1.7320   -4.8020    1.4010 h1        1 MOL     -0.084491
     79 H32         2.6400   -6.9010    2.0740 ho        1 MOL      0.405523
     80 H33        -0.3300   -5.5810    1.7950 hc        1 MOL      0.087393
     81 H34        -0.1480   -6.8980    0.6720 hc        1 MOL      0.087393
     82 H35         0.5720   -7.0040    2.3460 hc        1 MOL      0.087393
     83 N9         -0.6150   -4.5160   -1.0240 n         1 MOL     -0.425063
     84 C26        -1.8930   -3.6820   -1.0530 c3        1 MOL      0.010923
     85 C27        -2.4930   -3.7440    0.3780 c         1 MOL      0.163644
     86 O15        -2.5990   -4.8060    1.0010 o         1 MOL     -0.500309
     87 C28        -2.9620   -4.0660   -2.1100 c3        1 MOL      0.277050
     88 C29        -4.1820   -3.2580   -1.9910 c3        1 MOL      0.084428
     89 C30        -2.2560   -3.9280   -3.5330 c3        1 MOL     -0.447685
     90 C31        -5.2360   -3.5980   -3.0850 c3        1 MOL     -0.181117
     91 H36        -0.6730   -5.4190   -1.4770 hn        1 MOL      0.259853
     92 H37        -1.6390   -2.6340   -1.2460 h1        1 MOL      0.116480
     93 H38        -3.1960   -5.1320   -2.0650 hc        1 MOL     -0.013129
     94 H39        -3.9920   -2.1920   -2.0920 hc        1 MOL      0.011786
     95 H40        -4.6570   -3.4030   -1.0180 hc        1 MOL      0.011786
     96 H41        -2.3350   -2.8730   -3.8340 hc        1 MOL      0.109886
     97 H42        -1.1820   -4.0860   -3.6010 hc        1 MOL      0.109886
     98 H43        -2.7850   -4.4790   -4.3100 hc        1 MOL      0.109886
     99 H44        -5.9440   -2.7710   -3.0750 hc        1 MOL      0.020061
    100 H45        -4.8320   -3.5260   -4.0960 hc        1 MOL      0.020061
    101 H46        -5.6190   -4.6050   -2.9120 hc        1 MOL      0.020061
    102 N10        -3.0940   -2.6540    0.8750 n         1 MOL     -0.065408
    103 C32        -3.6650   -2.4520    2.2330 c3        1 MOL      0.091989
    104 C33        -5.1160   -1.7710    2.2360 c         1 MOL      0.377438
    105 O16        -5.9480   -2.1260    3.0510 o         1 MOL     -0.535347
    106 C34        -2.7330   -1.7810    3.2160 c3        1 MOL      0.057519
    107 C35        -1.3780   -2.4580    3.2630 c         1 MOL      0.687113
    108 O17        -0.4990   -2.0870    2.4710 o         1 MOL     -0.690965
    109 O18        -1.1460   -3.3830    4.0940 o         1 MOL     -0.690965
    110 H47        -3.1140   -1.8410    0.2740 hn        1 MOL      0.131986
    111 H48        -3.8530   -3.4610    2.5980 h1        1 MOL      0.072134
    112 H49        -3.1230   -2.1040    4.1860 hc        1 MOL     -0.042210
    113 H50        -2.6460   -0.7040    3.0340 hc        1 MOL     -0.042210
    114 N11        -5.4230   -0.8390    1.3090 n         1 MOL     -0.361011
    115 C36        -6.6690   -0.1210    1.1740 c3        1 MOL      0.443055
    116 C37        -6.3650    1.3270    0.6260 c         1 MOL      0.219068
    117 O19        -7.0150    1.7530   -0.3450 o         1 MOL     -0.497159
    118 C38        -7.7250   -0.9460    0.2880 c3        1 MOL     -0.516778
    119 C39        -9.1650   -0.3540    0.2330 ca        1 MOL      0.256164
    120 C40        -9.7470    0.5510    1.1920 ca        1 MOL     -0.214512
    121 C41        -9.9800   -1.0030   -0.6960 ca        1 MOL     -0.214512
    122 C42       -11.1570    0.8110    1.1950 ca        1 MOL     -0.076244
    123 C43       -11.3070   -0.5560   -0.8220 ca        1 MOL     -0.076244
    124 C44       -11.9110    0.2400    0.1500 ca        1 MOL     -0.195349
    125 H51        -4.7110   -0.6800    0.6090 hn        1 MOL      0.123514
    126 H52        -7.0680    0.1190    2.1620 h1        1 MOL     -0.011404
    127 H53        -7.8420   -1.9300    0.7320 hc        1 MOL      0.158509
    128 H54        -7.3900   -1.1310   -0.7290 hc        1 MOL      0.158509
    129 H55        -9.1320    0.9270    1.9880 ha        1 MOL      0.127641
    130 H56        -9.6150   -1.6580   -1.4630 ha        1 MOL      0.127641
    131 H57       -11.5940    1.4590    1.9310 ha        1 MOL      0.100481
    132 H58       -11.8540   -0.8830   -1.6950 ha        1 MOL      0.100481
    133 H59       -12.9300    0.5350   -0.0490 ha        1 MOL      0.106197
    134 N12        -5.2530    1.9420    1.1130 n         1 MOL      0.101376
    135 C45        -5.0070    3.3320    0.6020 c3        1 MOL     -0.105843
    136 C46        -4.6470    3.5270   -0.8390 c         1 MOL      0.274420
    137 O20        -4.6530    4.6660   -1.3300 o         1 MOL     -0.473503
    138 C47        -3.8780    3.8630    1.4800 c3        1 MOL      0.082826
    139 C48        -4.0910    3.0910    2.7620 c3        1 MOL     -0.096948
    140 C49        -4.5740    1.7030    2.4120 c3        1 MOL     -0.255502
    141 H60        -5.9280    3.8570    0.8570 h1        1 MOL      0.106206
    142 H61        -2.8940    3.5790    1.0990 hc        1 MOL      0.015884
    143 H62        -3.9940    4.9330    1.6540 hc        1 MOL      0.015884
    144 H63        -3.1650    3.1290    3.3440 hc        1 MOL      0.046657
    145 H64        -4.9280    3.5320    3.3060 hc        1 MOL      0.046657
    146 H65        -3.6780    1.0930    2.2530 h1        1 MOL      0.135971
    147 H66        -5.1490    1.2010    3.1930 h1        1 MOL      0.135971
    148 N13        -4.2500    2.3710   -1.4840 n         1 MOL     -0.043701
    149 C50        -3.9460    2.3440   -2.9590 c3        1 MOL     -0.104284
    150 C51        -5.2180    2.3680   -3.8300 c         1 MOL      0.477737
    151 O21        -5.2200    3.0850   -4.8220 o         1 MOL     -0.545454
    152 C52        -3.2320    0.9680   -3.2000 c3        1 MOL     -0.140610
    153 C53        -1.9300    0.5610   -2.4680 c3        1 MOL     -0.080721
    154 C54        -2.1240    0.1610   -0.9730 c         1 MOL      0.365457
    155 O22        -1.1260    0.0100   -0.2750 o         1 MOL     -0.587862
    156 O23        -3.2580   -0.2420   -0.5590 o         1 MOL     -0.587862
    157 H67        -4.0940    1.5380   -0.9340 hn        1 MOL      0.203282
    158 H68        -3.3930    3.2090   -3.3250 h1        1 MOL      0.100726
    159 H69        -2.9750    0.8660   -4.2500 hc        1 MOL      0.041834
    160 H70        -3.9010    0.1530   -2.9060 hc        1 MOL      0.041834
    161 H71        -1.3280    1.4640   -2.5610 hc        1 MOL      0.072429
    162 H72        -1.3930   -0.1860   -3.0500 hc        1 MOL      0.072429
    163 N14        -6.3100    1.8250   -3.3480 n         1 MOL     -0.248733
    164 C55        -7.6710    2.0320   -3.9640 c3        1 MOL     -0.156388
    165 H73        -8.1560    2.8880   -3.4930 h1        1 MOL      0.080970
    166 H74        -7.5630    2.2190   -5.0320 h1        1 MOL      0.080970
    167 H75        -8.2790    1.1410   -3.8100 h1        1 MOL      0.080970
    168 H76        -6.3620    1.3710   -2.4410 hn        1 MOL      0.245871
    169 Ca1         1.1000   -0.6110    1.0600 Ca        1 MOL      1.710795
    170 O24         1.6210    1.7870   -0.1910 oh        1 MOL     -0.867428
    171 H77         2.4430    2.2370   -0.3580 ho        1 MOL      0.418115
    172 H78         0.9410    2.4100   -0.4610 ho        1 MOL      0.418115
    173 O25         2.5730   -0.8410   -1.2280 oh        1 MOL     -0.867428
    174 H79         3.1110   -0.0540   -1.3310 ho        1 MOL      0.418115
    175 H80         3.1880   -1.5620   -1.3840 ho        1 MOL      0.418115
    176 O26        -0.8970    1.3460    1.9540 oh        1 MOL     -0.867428
    177 H81        -0.9500    2.2920    2.0620 ho        1 MOL      0.418115
    178 H82        -1.4270    1.1570    1.1860 ho        1 MOL      0.418115
    179 O27         2.7390   -2.5650    2.1650 oh        1 MOL     -0.867428
    180 H83         3.4760   -3.1480    2.0350 ho        1 MOL      0.418115
    181 H84         2.0690   -3.0980    2.5850 ho        1 MOL      0.418115
@<TRIPOS>BOND
     1    1    2 1   
     2    1    4 1   
     3    1    5 1   
     4    1    6 1   
     5    2    3 2   
     6    2    7 1   
     7    7    8 1   
     8    7   15 1   
     9    8    9 1   
    10    8   11 1   
    11    8   16 1   
    12    9   10 2   
    13    9   19 1   
    14   11   12 1   
    15   11   17 1   
    16   11   18 1   
    17   12   13 1   
    18   12   14 1   
    19   19   20 1   
    20   19   24 1   
    21   20   21 1   
    22   20   23 1   
    23   20   25 1   
    24   21   22 2   
    25   21   29 1   
    26   23   26 1   
    27   23   27 1   
    28   23   28 1   
    29   29   30 1   
    30   29   37 1   
    31   30   31 1   
    32   30   33 1   
    33   30   38 1   
    34   31   32 2   
    35   31   41 1   
    36   33   34 1   
    37   33   39 1   
    38   33   40 1   
    39   34   35 1   
    40   34   36 1   
    41   41   42 1   
    42   41   45 1   
    43   42   43 1   
    44   42   46 1   
    45   42   47 1   
    46   43   44 2   
    47   43   48 1   
    48   48   49 1   
    49   48   56 1   
    50   49   50 1   
    51   49   52 1   
    52   49   57 1   
    53   50   51 2   
    54   50   62 1   
    55   52   53 1   
    56   52   58 1   
    57   52   59 1   
    58   53   54 1   
    59   53   55 2   
    60   54   60 1   
    61   54   61 1   
    62   62   63 1   
    63   62   66 1   
    64   63   64 1   
    65   63   67 1   
    66   63   68 1   
    67   64   65 2   
    68   64   69 1   
    69   69   70 1   
    70   69   76 1   
    71   70   71 1   
    72   70   73 1   
    73   70   77 1   
    74   71   72 2   
    75   71   83 1   
    76   73   74 1   
    77   73   75 1   
    78   73   78 1   
    79   74   80 1   
    80   74   81 1   
    81   74   82 1   
    82   75   79 1   
    83   83   84 1   
    84   83   91 1   
    85   84   85 1   
    86   84   87 1   
    87   84   92 1   
    88   85   86 2   
    89   85  102 1   
    90   87   88 1   
    91   87   89 1   
    92   87   93 1   
    93   88   90 1   
    94   88   94 1   
    95   88   95 1   
    96   89   96 1   
    97   89   97 1   
    98   89   98 1   
    99   90   99 1   
   100   90  100 1   
   101   90  101 1   
   102  102  103 1   
   103  102  110 1   
   104  103  104 1   
   105  103  106 1   
   106  103  111 1   
   107  104  105 2   
   108  104  114 1   
   109  106  107 1   
   110  106  112 1   
   111  106  113 1   
   112  107  108 1   
   113  107  109 1   
   114  114  115 1   
   115  114  125 1   
   116  115  116 1   
   117  115  118 1   
   118  115  126 1   
   119  116  117 2   
   120  116  134 1   
   121  118  119 1   
   122  118  127 1   
   123  118  128 1   
   124  119  120 ar  
   125  119  121 ar  
   126  120  122 ar  
   127  120  129 1   
   128  121  123 ar  
   129  121  130 1   
   130  122  124 ar  
   131  122  131 1   
   132  123  124 ar  
   133  123  132 1   
   134  124  133 1   
   135  134  135 1   
   136  134  140 1   
   137  135  136 1   
   138  135  138 1   
   139  135  141 1   
   140  136  137 2   
   141  136  148 1   
   142  138  139 1   
   143  138  142 1   
   144  138  143 1   
   145  139  140 1   
   146  139  144 1   
   147  139  145 1   
   148  140  146 1   
   149  140  147 1   
   150  148  149 1   
   151  148  157 1   
   152  149  150 1   
   153  149  152 1   
   154  149  158 1   
   155  150  151 2   
   156  150  163 1   
   157  152  153 1   
   158  152  159 1   
   159  152  160 1   
   160  153  154 1   
   161  153  161 1   
   162  153  162 1   
   163  154  155 1   
   164  154  156 1   
   165  163  164 1   
   166  163  168 1   
   167  164  165 1   
   168  164  166 1   
   169  164  167 1   
   170  170  171 1   
   171  170  172 1   
   172  173  174 1   
   173  173  175 1   
   174  176  177 1   
   175  176  178 1   
   176  179  180 1   
   177  179  181 1   
@<TRIPOS>SUBSTRUCTURE
     1 MOL         1 TEMP              0 ****  ****    0 ROOT
