@<TRIPOS>MOLECULE
MOL
  179   176     1     0     0
SMALL
resp


@<TRIPOS>ATOM
      1 C1          1.2010   -4.7560    5.5830 c3        1 MOL     -0.427946
      2 C2          1.3490   -4.3400    4.1030 c         1 MOL      0.795233
      3 O1          0.4300   -4.5480    3.2840 o         1 MOL     -0.677257
      4 H1          2.1400   -4.5720    6.1070 hc        1 MOL      0.119978
      5 H2          0.4060   -4.1730    6.0480 hc        1 MOL      0.119978
      6 H3          0.9560   -5.8170    5.6400 hc        1 MOL      0.119978
      7 N1          2.5620   -3.8880    3.7060 n         1 MOL     -0.629635
      8 C3          2.7720   -3.2970    2.3670 c3        1 MOL      0.012856
      9 C4          3.0390   -4.2960    1.2540 c         1 MOL      0.594914
     10 O2          4.1230   -4.8290    1.1050 o         1 MOL     -0.504438
     11 C5          3.8400   -2.2150    2.4960 c3        1 MOL      0.094385
     12 C6          3.7850   -1.3680    1.2360 c         1 MOL      0.428549
     13 O3          4.2170   -0.2290    1.4510 o         1 MOL     -0.671521
     14 O4          3.2990   -1.7190    0.1430 o         1 MOL     -0.671521
     15 H4          3.1670   -3.5500    4.4410 hn        1 MOL      0.334400
     16 H5          1.8280   -2.8010    2.1190 h1        1 MOL      0.002741
     17 H6          4.7910   -2.6980    2.6870 hc        1 MOL      0.009421
     18 H7          3.5400   -1.6170    3.3630 hc        1 MOL      0.009421
     19 N2          2.0400   -4.4650    0.3230 n         1 MOL     -0.312099
     20 C7          1.9930   -5.4940   -0.7240 c3        1 MOL      0.035543
     21 C8          3.1650   -5.4660   -1.7200 c         1 MOL      0.412208
     22 O5          3.7220   -6.5490   -2.1080 o         1 MOL     -0.534847
     23 C9          0.6390   -5.4150   -1.4900 c3        1 MOL     -0.106726
     24 C10        -0.4750   -6.1270   -0.7290 c3        1 MOL      0.004480
     25 C11        -1.9190   -5.9790   -1.3590 c3        1 MOL      0.084463
     26 C12        -2.9480   -6.5710   -0.3600 c3        1 MOL     -0.017780
     27 N3         -4.3500   -6.4070   -0.7520 n4        1 MOL     -0.180028
     28 H8          1.3100   -3.7650    0.2850 hn        1 MOL      0.228998
     29 H9          2.0350   -6.4720   -0.2430 h1        1 MOL      0.075963
     30 H10         0.8050   -5.7750   -2.5040 hc        1 MOL      0.049079
     31 H11         0.4130   -4.3500   -1.5300 hc        1 MOL      0.049079
     32 H12        -0.6200   -5.7220    0.2780 hc        1 MOL      0.011511
     33 H13        -0.2270   -7.1850   -0.6710 hc        1 MOL      0.011511
     34 H14        -1.9460   -6.4650   -2.3330 hc        1 MOL     -0.003800
     35 H15        -2.1620   -4.9230   -1.4870 hc        1 MOL     -0.003800
     36 H16        -2.7940   -6.0140    0.5740 hx        1 MOL      0.068248
     37 H17        -2.6620   -7.6050   -0.1310 hx        1 MOL      0.068248
     38 H18        -4.4670   -6.8940   -1.6210 hn        1 MOL      0.244488
     39 H19        -4.8280   -6.9850   -0.0710 hn        1 MOL      0.244488
     40 H20        -4.7890   -5.4990   -0.7180 hn        1 MOL      0.244488
     41 N4          3.7330   -4.2330   -1.7910 n         1 MOL     -0.201923
     42 C13         4.8480   -3.9510   -2.6600 c3        1 MOL      0.037824
     43 C14         5.9710   -3.3140   -1.8180 c         1 MOL      0.410897
     44 O6          7.0230   -3.0190   -2.3250 o         1 MOL     -0.551253
     45 C15         4.3660   -2.9490   -3.7030 c3        1 MOL     -0.251351
     46 C16         3.7980   -1.6840   -3.1240 c         1 MOL      0.692042
     47 O7          4.4780   -0.8200   -2.5000 o         1 MOL     -0.741129
     48 O8          2.5180   -1.5450   -3.1230 o         1 MOL     -0.741129
     49 H21         3.2360   -3.4650   -1.3650 hn        1 MOL      0.152094
     50 H22         5.1960   -4.8940   -3.0920 h1        1 MOL      0.113871
     51 H23         3.6640   -3.3990   -4.4030 hc        1 MOL      0.084016
     52 H24         5.2270   -2.7360   -4.3470 hc        1 MOL      0.084016
     53 N5          5.8710   -3.1780   -0.4700 n         1 MOL     -0.092842
     54 C17         6.9340   -2.5850    0.4150 c3        1 MOL     -0.223256
     55 C18         7.3010   -1.1230    0.2790 c         1 MOL      0.560430
     56 O9          8.2210   -0.7630    1.0270 o         1 MOL     -0.603255
     57 H25         5.0720   -3.6170   -0.0260 hn        1 MOL      0.088785
     58 H26         7.7950   -3.2470    0.4310 h1        1 MOL      0.125863
     59 H27         6.5110   -2.7540    1.4040 h1        1 MOL      0.125863
     60 N6          6.6980   -0.3060   -0.5610 n         1 MOL     -0.279679
     61 C19         7.1200    1.1410   -0.5770 c3        1 MOL      0.318447
     62 C20         5.9160    2.1270   -0.7860 c         1 MOL      0.439911
     63 O10         4.7480    1.6290   -0.9190 o         1 MOL     -0.501468
     64 C21         8.3310    1.4130   -1.5430 c3        1 MOL     -0.431428
     65 C22         9.3590    2.3170   -0.8710 c         1 MOL      0.605695
     66 N7         10.4830    1.8400   -0.5040 n         1 MOL     -0.635429
     67 O11         9.1320    3.4920   -0.6030 o         1 MOL     -0.566413
     68 H28         5.9750   -0.7090   -1.1310 hn        1 MOL      0.248495
     69 H29         7.4230    1.4290    0.4300 h1        1 MOL      0.060293
     70 H30         7.9860    1.9460   -2.4320 hc        1 MOL      0.114571
     71 H31         8.8050    0.4650   -1.8060 hc        1 MOL      0.114571
     72 H32        10.6330    0.8730   -0.7830 hn        1 MOL      0.338575
     73 H33        11.2430    2.4760   -0.3580 hn        1 MOL      0.338575
     74 N8          6.0440    3.4730   -0.8550 n         1 MOL     -0.446488
     75 C23         4.8580    4.3210   -1.2010 c3        1 MOL      0.102809
     76 C24         3.8920    4.5530   -0.0520 c         1 MOL      0.479268
     77 O12         4.2690    4.3920    1.1300 o         1 MOL     -0.465253
     78 H34         6.9460    3.9200   -0.8040 hn        1 MOL      0.293731
     79 H35         4.3240    3.8230   -2.0020 h1        1 MOL      0.035857
     80 H36         5.2720    5.2480   -1.5920 h1        1 MOL      0.035857
     81 N9          2.6000    4.8630   -0.3710 n         1 MOL     -0.572762
     82 C25         1.5120    4.7310    0.5550 c3        1 MOL      0.481572
     83 C26         1.2630    3.2670    0.8000 c         1 MOL      0.388278
     84 O13         1.6180    2.4100    0.0010 o         1 MOL     -0.476389
     85 C27         0.2330    5.4170    0.0760 c3        1 MOL     -0.318778
     86 C28         0.1680    6.9360    0.1000 ca        1 MOL      0.133334
     87 C29        -0.0810    7.6380    1.3290 ca        1 MOL     -0.176042
     88 C30         0.6310    7.6310   -0.9910 ca        1 MOL     -0.176042
     89 C31         0.0880    9.0600    1.3620 ca        1 MOL     -0.265082
     90 C32         0.6650    8.9940   -1.0010 ca        1 MOL     -0.265082
     91 C33         0.3940    9.7580    0.1390 ca        1 MOL      0.342356
     92 O14         0.4600   11.1220    0.0350 oh        1 MOL     -0.457161
     93 H37         2.3580    4.9860   -1.3370 hn        1 MOL      0.264683
     94 H38         1.8910    5.2470    1.4410 h1        1 MOL     -0.009596
     95 H39        -0.5520    5.1270    0.7840 hc        1 MOL      0.078008
     96 H40         0.0770    5.0060   -0.9210 hc        1 MOL      0.078008
     97 H41        -0.3900    7.0610    2.1940 ha        1 MOL      0.135718
     98 H42         0.9510    7.1160   -1.8910 ha        1 MOL      0.135718
     99 H43        -0.1310    9.6630    2.2220 ha        1 MOL      0.161694
    100 H44         0.8370    9.4970   -1.9360 ha        1 MOL      0.161694
    101 H45         0.4540   11.4380    0.9450 ho        1 MOL      0.356002
    102 N10         0.5510    2.9820    1.9830 n         1 MOL     -0.562438
    103 C34         0.2750    1.6310    2.5090 c3        1 MOL      0.067879
    104 C35         0.0420    0.4950    1.5090 c         1 MOL      0.437352
    105 O15         0.9000   -0.1400    0.8430 o         1 MOL     -0.646216
    106 C36         1.5580    1.1770    3.4460 c3        1 MOL      0.298178
    107 C37         1.4170   -0.1820    4.1420 c3        1 MOL      0.109045
    108 C38         1.7820    2.1270    4.6410 c3        1 MOL     -0.502451
    109 C39         0.1710   -0.5100    4.8680 c3        1 MOL     -0.061605
    110 H46         0.2460    3.7560    2.5530 hn        1 MOL      0.318024
    111 H47        -0.5760    1.6210    3.1880 h1        1 MOL      0.067795
    112 H48         2.5170    1.1670    2.9400 hc        1 MOL      0.058658
    113 H49         2.2260   -0.4190    4.8340 hc        1 MOL      0.002293
    114 H50         1.5470   -0.9840    3.4190 hc        1 MOL      0.002293
    115 H51         0.9130    2.2240    5.3000 hc        1 MOL      0.110075
    116 H52         2.6990    1.8440    5.1550 hc        1 MOL      0.110075
    117 H53         2.0150    3.0680    4.1420 hc        1 MOL      0.110075
    118 H54         0.3150   -1.5310    5.2130 hc        1 MOL     -0.012706
    119 H55        -0.0630    0.2580    5.6030 hc        1 MOL     -0.012706
    120 H56        -0.6990   -0.4770    4.2250 hc        1 MOL     -0.012706
    121 N11        -1.1910    0.1010    1.3550 n         1 MOL     -0.281163
    122 C40        -1.6330   -1.1230    0.5320 c3        1 MOL      0.155509
    123 C41        -3.0630   -0.9500   -0.1120 c         1 MOL      0.483960
    124 O16        -3.5560   -1.9600   -0.6090 o         1 MOL     -0.535111
    125 C42        -1.6860   -2.3720    1.4880 c3        1 MOL     -0.083745
    126 O17        -0.5640   -3.0970    1.2550 oh        1 MOL     -0.413106
    127 H57        -1.8690    0.6530    1.8520 hn        1 MOL      0.213406
    128 H58        -0.9500   -1.3280   -0.2830 h1        1 MOL      0.074374
    129 H59        -2.5750   -2.9770    1.3370 h1        1 MOL      0.055741
    130 H60        -1.5800   -2.0170    2.5100 h1        1 MOL      0.055741
    131 H61        -0.5740   -3.8230    1.8930 ho        1 MOL      0.432369
    132 N12        -3.6620    0.2070   -0.1430 n         1 MOL     -0.624145
    133 C43        -5.1320    0.2770   -0.4530 c3        1 MOL      0.503043
    134 C44        -5.4100    1.1090   -1.6810 c         1 MOL      0.441751
    135 O18        -4.6550    1.9490   -2.0810 o         1 MOL     -0.527760
    136 C45        -5.7800    0.8150    0.8230 c3        1 MOL     -0.244295
    137 H62        -3.1060    0.9980    0.1610 hn        1 MOL      0.264785
    138 H63        -5.5570   -0.7120   -0.6220 h1        1 MOL      0.010605
    139 H64        -6.8250    0.5120    0.7400 hc        1 MOL      0.057951
    140 H65        -5.2980    0.3250    1.6700 hc        1 MOL      0.057951
    141 H66        -5.8650    1.9070    0.8440 hc        1 MOL      0.057951
    142 N13        -6.4980    0.8860   -2.4650 n         1 MOL     -0.549375
    143 C46        -7.7240    0.1180   -2.1460 c3        1 MOL      0.232845
    144 C47        -8.9800    0.9790   -2.5490 c         1 MOL      0.475922
    145 O19        -8.8790    1.8940   -3.3450 o         1 MOL     -0.544794
    146 C48        -7.7800   -1.2950   -2.8220 c3        1 MOL     -0.412606
    147 H67        -6.5150    1.4300   -3.3160 hn        1 MOL      0.343097
    148 H68        -7.7580    0.0870   -1.0590 h1        1 MOL      0.012426
    149 H69        -7.3840   -1.1460   -3.8290 hc        1 MOL      0.116509
    150 H70        -7.0940   -2.0260   -2.3930 hc        1 MOL      0.116509
    151 H71        -8.7820   -1.7150   -2.8660 hc        1 MOL      0.116509
    152 N14       -10.0570    1.0020   -1.7850 n         1 MOL     -0.352645
    153 C49       -10.2720    0.2670   -0.4420 c3        1 MOL     -0.102876
    154 C50        -9.5720    0.9360    0.7730 c         1 MOL      0.442558
    155 O20        -9.3070    0.2690    1.8190 o         1 MOL     -0.498578
    156 C51       -11.7870    0.1920   -0.1270 c3        1 MOL     -0.132171
    157 C52       -12.1320   -1.2770    0.2450 c3        1 MOL     -0.057122
    158 C53       -13.6610   -1.4100    0.2720 c         1 MOL      0.677232
    159 O21       -14.1970   -1.3240    1.3990 o         1 MOL     -0.669276
    160 O22       -14.2650   -1.7650   -0.7490 o         1 MOL     -0.669276
    161 H72       -10.8830    1.4090   -2.1840 hn        1 MOL      0.290744
    162 H73        -9.8580   -0.7320   -0.5810 h1        1 MOL      0.079764
    163 H74       -12.4330    0.5900   -0.9030 hc        1 MOL      0.076601
    164 H75       -12.0210    0.7550    0.7770 hc        1 MOL      0.076601
    165 H76       -11.6990   -1.6170    1.1920 hc        1 MOL      0.011441
    166 H77       -11.8200   -1.9100   -0.5890 hc        1 MOL      0.011441
    167 N15        -9.3660    2.2740    0.6830 n         1 MOL     -0.252350
    168 C54        -8.9470    3.1960    1.7940 c3        1 MOL     -0.096095
    169 H78        -7.9260    3.5360    1.6180 h1        1 MOL      0.078544
    170 H79        -9.6150    4.0560    1.8240 h1        1 MOL      0.078544
    171 H80        -8.9940    2.6650    2.7450 h1        1 MOL      0.078544
    172 H81        -9.6550    2.6770   -0.2000 hn        1 MOL      0.215179
    173 Ca1         2.5410    0.2920   -1.2440 Ca        1 MOL      1.750927
    174 O23         2.3720    2.0910   -3.1620 oh        1 MOL     -0.841660
    175 H82         3.0890    2.2100   -3.7820 ho        1 MOL      0.424596
    176 H83         1.6620    2.6190   -3.5070 ho        1 MOL      0.424596
    177 O24         0.2090    0.2760   -2.3080 oh        1 MOL     -0.841660
    178 H84        -0.1100   -0.3630   -2.9480 ho        1 MOL      0.424596
    179 H85        -0.5880    0.7070   -1.9960 ho        1 MOL      0.424596
@<TRIPOS>BOND
     1    1    2 1   
     2    1    4 1   
     3    1    5 1   
     4    1    6 1   
     5    2    3 2   
     6    2    7 1   
     7    7    8 1   
     8    7   15 1   
     9    8    9 1   
    10    8   11 1   
    11    8   16 1   
    12    9   10 2   
    13    9   19 1   
    14   11   12 1   
    15   11   17 1   
    16   11   18 1   
    17   12   13 1   
    18   12   14 1   
    19   19   20 1   
    20   19   28 1   
    21   20   21 1   
    22   20   23 1   
    23   20   29 1   
    24   21   22 2   
    25   21   41 1   
    26   23   24 1   
    27   23   30 1   
    28   23   31 1   
    29   24   25 1   
    30   24   32 1   
    31   24   33 1   
    32   25   26 1   
    33   25   34 1   
    34   25   35 1   
    35   26   27 1   
    36   26   36 1   
    37   26   37 1   
    38   27   38 1   
    39   27   39 1   
    40   27   40 1   
    41   41   42 1   
    42   41   49 1   
    43   42   43 1   
    44   42   45 1   
    45   42   50 1   
    46   43   44 2   
    47   43   53 1   
    48   45   46 1   
    49   45   51 1   
    50   45   52 1   
    51   46   47 1   
    52   46   48 1   
    53   53   54 1   
    54   53   57 1   
    55   54   55 1   
    56   54   58 1   
    57   54   59 1   
    58   55   56 2   
    59   55   60 1   
    60   60   61 1   
    61   60   68 1   
    62   61   62 1   
    63   61   64 1   
    64   61   69 1   
    65   62   63 2   
    66   62   74 1   
    67   64   65 1   
    68   64   70 1   
    69   64   71 1   
    70   65   66 1   
    71   65   67 2   
    72   66   72 1   
    73   66   73 1   
    74   74   75 1   
    75   74   78 1   
    76   75   76 1   
    77   75   79 1   
    78   75   80 1   
    79   76   77 2   
    80   76   81 1   
    81   81   82 1   
    82   81   93 1   
    83   82   83 1   
    84   82   85 1   
    85   82   94 1   
    86   83   84 2   
    87   83  102 1   
    88   85   86 1   
    89   85   95 1   
    90   85   96 1   
    91   86   87 ar  
    92   86   88 ar  
    93   87   89 ar  
    94   87   97 1   
    95   88   90 ar  
    96   88   98 1   
    97   89   91 ar  
    98   89   99 1   
    99   90   91 ar  
   100   90  100 1   
   101   91   92 1   
   102   92  101 1   
   103  102  103 1   
   104  102  110 1   
   105  103  104 1   
   106  103  106 1   
   107  103  111 1   
   108  104  105 2   
   109  104  121 1   
   110  106  107 1   
   111  106  108 1   
   112  106  112 1   
   113  107  109 1   
   114  107  113 1   
   115  107  114 1   
   116  108  115 1   
   117  108  116 1   
   118  108  117 1   
   119  109  118 1   
   120  109  119 1   
   121  109  120 1   
   122  121  122 1   
   123  121  127 1   
   124  122  123 1   
   125  122  125 1   
   126  122  128 1   
   127  123  124 2   
   128  123  132 1   
   129  125  126 1   
   130  125  129 1   
   131  125  130 1   
   132  126  131 1   
   133  132  133 1   
   134  132  137 1   
   135  133  134 1   
   136  133  136 1   
   137  133  138 1   
   138  134  135 2   
   139  134  142 1   
   140  136  139 1   
   141  136  140 1   
   142  136  141 1   
   143  142  143 1   
   144  142  147 1   
   145  143  144 1   
   146  143  146 1   
   147  143  148 1   
   148  144  145 2   
   149  144  152 1   
   150  146  149 1   
   151  146  150 1   
   152  146  151 1   
   153  152  153 1   
   154  152  161 1   
   155  153  154 1   
   156  153  156 1   
   157  153  162 1   
   158  154  155 2   
   159  154  167 1   
   160  156  157 1   
   161  156  163 1   
   162  156  164 1   
   163  157  158 1   
   164  157  165 1   
   165  157  166 1   
   166  158  159 1   
   167  158  160 1   
   168  167  168 1   
   169  167  172 1   
   170  168  169 1   
   171  168  170 1   
   172  168  171 1   
   173  174  175 1   
   174  174  176 1   
   175  177  178 1   
   176  177  179 1   
@<TRIPOS>SUBSTRUCTURE
     1 MOL         1 TEMP              0 ****  ****    0 ROOT
