@<TRIPOS>MOLECULE
MOL
  189   185     1     0     0
SMALL
resp


@<TRIPOS>ATOM
      1 C1          9.0910    1.9390    0.9280 c3        1 MOL     -0.559782
      2 C2          8.0750    1.0900    0.2810 c         1 MOL      0.871964
      3 O1          6.9940    0.7510    0.8490 o         1 MOL     -0.749205
      4 H1          9.8240    1.3080    1.4320 hc        1 MOL      0.147057
      5 H2          9.5930    2.5450    0.1730 hc        1 MOL      0.147057
      6 H3          8.6110    2.5900    1.6580 hc        1 MOL      0.147057
      7 N1          8.4070    0.5030   -0.8740 n         1 MOL     -0.626476
      8 C3          7.3790   -0.1140   -1.7630 c3        1 MOL      0.069174
      9 C4          7.1310   -1.6480   -1.4920 c         1 MOL      0.446954
     10 O2          7.2580   -2.5700   -2.3000 o         1 MOL     -0.448654
     11 C5          7.7010    0.1610   -3.2130 c3        1 MOL     -0.193969
     12 C6          9.1710   -0.2320   -3.5160 c         1 MOL      0.753340
     13 O3          9.9860    0.7210   -3.2990 o         1 MOL     -0.652942
     14 O4          9.4700   -1.2070   -4.2160 o         1 MOL     -0.652942
     15 H4          9.1960    0.9260   -1.3360 hn        1 MOL      0.240142
     16 H5          6.4080    0.3330   -1.5680 h1        1 MOL      0.107289
     17 H6          7.6810    1.2400   -3.2940 hc        1 MOL      0.066139
     18 H7          7.0290   -0.3400   -3.9080 hc        1 MOL      0.066139
     19 N2          6.5980   -1.8560   -0.2840 n         1 MOL     -0.441481
     20 C7          6.3310   -3.2140    0.2310 c3        1 MOL     -0.011307
     21 C8          4.8740   -3.5790   -0.0750 c         1 MOL      0.610991
     22 O5          4.6350   -4.7080   -0.3950 o         1 MOL     -0.579324
     23 C9          6.7290   -3.4140    1.7180 c3        1 MOL      0.258656
     24 C10         8.2340   -3.2180    1.9900 c3        1 MOL     -0.136748
     25 C11         8.5960   -3.4340    3.4880 c3        1 MOL      0.085264
     26 C12        10.0690   -3.5150    3.8680 c3        1 MOL     -0.026770
     27 N3         10.1650   -3.5290    5.3120 n4        1 MOL     -0.135362
     28 H8          6.5570   -0.9970    0.2490 hn        1 MOL      0.387359
     29 H9          6.9520   -3.9330   -0.3080 h1        1 MOL      0.077855
     30 H10         6.2760   -4.3200    2.0990 hc        1 MOL     -0.068586
     31 H11         6.3250   -2.6440    2.3880 hc        1 MOL     -0.068586
     32 H12         8.4370   -2.1700    1.7630 hc        1 MOL      0.033731
     33 H13         8.7310   -3.9610    1.3660 hc        1 MOL      0.033731
     34 H14         8.1160   -4.3630    3.7860 hc        1 MOL     -0.004246
     35 H15         8.2240   -2.5440    4.0040 hc        1 MOL     -0.004246
     36 H16        10.5170   -2.5840    3.5300 hx        1 MOL      0.087578
     37 H17        10.4910   -4.4110    3.4170 hx        1 MOL      0.087578
     38 H18         9.9550   -2.5960    5.6450 hn        1 MOL      0.219263
     39 H19         9.5650   -4.2050    5.7700 hn        1 MOL      0.219263
     40 H20        11.1220   -3.6310    5.5840 hn        1 MOL      0.219263
     41 N4          3.8990   -2.7690    0.2330 n         1 MOL     -0.439309
     42 C13         3.9170   -1.5120    1.0080 c3        1 MOL      0.103478
     43 C14         3.8120   -0.2860    0.0610 c         1 MOL      0.212389
     44 O6          3.6010   -0.4610   -1.1490 o         1 MOL     -0.460917
     45 C15         2.7300   -1.4560    1.9410 c3        1 MOL     -0.403526
     46 C16         1.4370   -1.8570    1.2220 c         1 MOL      0.818203
     47 O7          0.7100   -0.9280    0.8630 o         1 MOL     -0.685580
     48 O8          1.2560   -3.0860    1.0880 o         1 MOL     -0.685580
     49 H21         3.0170   -3.1650   -0.0430 hn        1 MOL      0.331941
     50 H22         4.8260   -1.4570    1.6000 h1        1 MOL      0.112073
     51 H23         2.5990   -0.4420    2.3240 hc        1 MOL      0.070360
     52 H24         2.8050   -2.1840    2.7460 hc        1 MOL      0.070360
     53 N5          3.9670    0.8700    0.5480 n         1 MOL     -0.301601
     54 C17         4.0550    2.1640   -0.2050 c3        1 MOL     -0.082439
     55 C18         2.7960    2.6420   -0.8530 c         1 MOL      0.456437
     56 O9          1.7200    2.0790   -0.5360 o         1 MOL     -0.416750
     57 H25         4.1440    0.9260    1.5420 hn        1 MOL      0.303988
     58 H26         4.8640    2.0270   -0.9320 h1        1 MOL      0.093251
     59 H27         4.4380    2.9480    0.4590 h1        1 MOL      0.093251
     60 N6          2.7980    3.6580   -1.6710 n         1 MOL     -0.422241
     61 C19         1.7030    4.3560   -2.3070 c3        1 MOL      0.339273
     62 C20         2.0450    5.8370   -2.3060 c         1 MOL      0.350346
     63 O10         3.2500    6.1930   -2.2320 o         1 MOL     -0.522186
     64 C21         1.4840    3.7800   -3.7530 c3        1 MOL     -0.299364
     65 C22         1.0340    2.3030   -3.6470 c         1 MOL      0.764162
     66 O11         0.0280    2.0010   -3.0470 o         1 MOL     -0.708998
     67 O12         1.7700    1.4130   -4.1570 o         1 MOL     -0.708998
     68 H28         3.6180    4.2520   -1.6240 hn        1 MOL      0.266522
     69 H29         0.8010    4.2620   -1.7170 h1        1 MOL     -0.027635
     70 H30         2.3510    3.9640   -4.3810 hc        1 MOL      0.072083
     71 H31         0.6090    4.2550   -4.1860 hc        1 MOL      0.072083
     72 N7          1.0830    6.7500   -2.4140 n         1 MOL     -0.339042
     73 C23        -0.3700    6.6260   -2.3660 c3        1 MOL     -0.097285
     74 C24        -0.9350    6.1150   -0.9880 c         1 MOL      0.673785
     75 O13        -0.4300    6.6030    0.0740 o         1 MOL     -0.531768
     76 H32         1.5410    7.6470   -2.4140 hn        1 MOL      0.297601
     77 H33        -0.6620    5.9230   -3.1490 h1        1 MOL      0.074675
     78 H34        -0.7830    7.6120   -2.5790 h1        1 MOL      0.074675
     79 N8         -2.0910    5.4800   -1.0770 n         1 MOL     -0.632126
     80 C25        -2.7230    4.8720    0.0990 c3        1 MOL      0.112658
     81 C26        -1.7430    3.7930    0.5750 c         1 MOL      0.787467
     82 O14        -0.9760    3.0760   -0.1240 o         1 MOL     -0.716178
     83 C27        -4.0530    4.2630   -0.3470 c3        1 MOL      0.349505
     84 C28        -5.0370    5.4190   -0.7740 c3        1 MOL     -0.407937
     85 O15        -4.6610    3.5170    0.7010 oh        1 MOL     -0.658354
     86 H35        -2.3580    5.0820   -1.9660 hn        1 MOL      0.325575
     87 H36        -2.8100    5.5920    0.9160 h1        1 MOL      0.064862
     88 H37        -3.8740    3.6050   -1.2090 h1        1 MOL      0.019765
     89 H38        -5.4570    3.1560    0.3060 ho        1 MOL      0.400579
     90 H39        -5.8640    5.0500   -1.3800 hc        1 MOL      0.109283
     91 H40        -5.5430    5.8600    0.0810 hc        1 MOL      0.109283
     92 H41        -4.4700    6.1320   -1.3630 hc        1 MOL      0.109283
     93 N9         -1.8240    3.5950    1.9560 n         1 MOL     -0.784327
     94 C29        -1.1470    2.5910    2.7340 c3        1 MOL      0.426648
     95 C30        -1.7360    1.2120    2.5070 c         1 MOL      0.428506
     96 O16        -1.8420    0.7460    1.3420 o         1 MOL     -0.475692
     97 C31         0.3870    2.6270    2.7770 c3        1 MOL      0.363833
     98 C32         0.9420    4.0960    2.8390 c3        1 MOL     -0.043902
     99 C33         0.8490    1.6770    3.9460 c3        1 MOL     -0.493472
    100 C34         0.6530    4.8680    4.1180 c3        1 MOL     -0.298388
    101 H42        -2.6070    4.0490    2.4030 hn        1 MOL      0.335286
    102 H43        -1.3480    2.8980    3.7510 h1        1 MOL     -0.032812
    103 H44         0.6680    2.1890    1.8180 hc        1 MOL     -0.184681
    104 H45         0.5560    4.6090    1.9540 hc        1 MOL      0.048977
    105 H46         2.0170    4.0310    2.6450 hc        1 MOL      0.048977
    106 H47         0.7040    0.6420    3.6430 hc        1 MOL      0.108770
    107 H48         1.8970    1.9110    4.0840 hc        1 MOL      0.108770
    108 H49         0.2730    1.7760    4.8740 hc        1 MOL      0.108770
    109 H50         1.1960    4.5240    5.0020 hc        1 MOL      0.073391
    110 H51         0.9950    5.8980    3.9970 hc        1 MOL      0.073391
    111 H52        -0.4150    4.8170    4.3240 hc        1 MOL      0.073391
    112 N10        -2.0690    0.5470    3.6520 n         1 MOL     -0.602492
    113 C35        -2.4780   -0.8390    3.8430 c3        1 MOL      0.154074
    114 C36        -3.8330   -1.2100    3.2240 c         1 MOL      0.608624
    115 O17        -4.1110   -2.3740    3.0760 o         1 MOL     -0.531855
    116 C37        -2.3850   -1.2410    5.3000 c3        1 MOL      0.433081
    117 C38        -2.6800   -2.6820    5.6440 c3        1 MOL     -0.385997
    118 O18        -3.3860   -0.5090    5.9310 oh        1 MOL     -0.643829
    119 H53        -2.0240    1.0830    4.5110 hn        1 MOL      0.239661
    120 H54        -1.8520   -1.5110    3.2640 h1        1 MOL      0.012950
    121 H55        -1.3730   -0.9670    5.5950 h1        1 MOL     -0.010093
    122 H56        -3.0630    0.3790    6.1100 ho        1 MOL      0.381728
    123 H57        -2.6080   -3.3660    4.7940 hc        1 MOL      0.113348
    124 H58        -1.9940   -3.0700    6.3930 hc        1 MOL      0.113348
    125 H59        -3.7080   -2.7180    5.9930 hc        1 MOL      0.113348
    126 N11        -4.7860   -0.3050    2.9520 n         1 MOL     -0.426312
    127 C39        -6.1070   -0.5150    2.3420 c3        1 MOL     -0.128805
    128 C40        -5.9880   -0.8990    0.8660 c         1 MOL      0.519206
    129 O19        -5.3040   -0.2480    0.0010 o         1 MOL     -0.508692
    130 C41        -6.9080    0.7410    2.5980 c3        1 MOL      0.383517
    131 C42        -8.3740    0.6550    2.2250 c3        1 MOL     -0.208017
    132 O20        -6.9290    1.0170    3.9660 oh        1 MOL     -0.575533
    133 H60        -4.5090    0.6560    3.0790 hn        1 MOL      0.256090
    134 H61        -6.6780   -1.2570    2.8980 h1        1 MOL      0.107522
    135 H62        -6.3830    1.5230    2.0390 h1        1 MOL     -0.017778
    136 H63        -6.0170    1.0470    4.2740 ho        1 MOL      0.357283
    137 H64        -8.9070   -0.0650    2.8240 hc        1 MOL      0.059354
    138 H65        -8.8390    1.6210    2.4660 hc        1 MOL      0.059354
    139 H66        -8.5160    0.5400    1.1480 hc        1 MOL      0.059354
    140 N12        -6.6810   -1.9350    0.4710 n         1 MOL     -0.479954
    141 C43        -6.7730   -2.5670   -0.8800 c3        1 MOL      0.451829
    142 C44        -5.4910   -2.7460   -1.6880 c         1 MOL      0.336687
    143 O21        -5.3540   -2.2520   -2.8200 o         1 MOL     -0.518509
    144 C45        -7.9560   -1.9510   -1.6850 c3        1 MOL     -0.371503
    145 C46        -9.3700   -1.9460   -1.0430 c3        1 MOL     -0.007757
    146 C47       -10.3740   -1.2700   -2.0080 c3        1 MOL      0.009759
    147 C48       -11.8270   -1.2950   -1.4930 c3        1 MOL      0.051149
    148 N13       -12.7530   -0.9860   -2.5720 n4        1 MOL     -0.150085
    149 H67        -7.2800   -2.3780    1.1580 hn        1 MOL      0.265927
    150 H68        -7.1130   -3.5740   -0.6510 h1        1 MOL     -0.022602
    151 H69        -8.0370   -2.5290   -2.6000 hc        1 MOL      0.106327
    152 H70        -7.6250   -0.9220   -1.8360 hc        1 MOL      0.106327
    153 H71        -9.3210   -1.5940   -0.0140 hc        1 MOL      0.032598
    154 H72        -9.7010   -2.9750   -0.8910 hc        1 MOL      0.032598
    155 H73       -10.3140   -1.7520   -2.9810 hc        1 MOL      0.034405
    156 H74       -10.0660   -0.2400   -2.1520 hc        1 MOL      0.034405
    157 H75       -11.9000   -0.6100   -0.6420 hx        1 MOL      0.041076
    158 H76       -11.9910   -2.3120   -1.1390 hx        1 MOL      0.041076
    159 H77       -12.8630   -1.7320   -3.2450 hn        1 MOL      0.193993
    160 H78       -13.6490   -0.8440   -2.1150 hn        1 MOL      0.193993
    161 H79       -12.3340   -0.2390   -3.0910 hn        1 MOL      0.193993
    162 N14        -4.3900   -3.2910   -1.1410 n         1 MOL     -0.407070
    163 C49        -3.0690   -3.3550   -1.7790 c3        1 MOL      0.459999
    164 C50        -1.9200   -2.7850   -0.8470 c         1 MOL      0.430955
    165 O22        -1.4230   -1.6570   -1.0110 o         1 MOL     -0.667454
    166 C51        -2.8120   -4.7210   -2.4540 c3        1 MOL     -0.203633
    167 C52        -3.3120   -4.7370   -3.9020 c3        1 MOL     -0.375914
    168 C53        -2.9690   -6.2080   -4.4470 c         1 MOL      0.691653
    169 O23        -3.8130   -7.0870   -4.2210 o         1 MOL     -0.602852
    170 O24        -1.8960   -6.4820   -5.1140 o         1 MOL     -0.602852
    171 H80        -4.6020   -3.7350   -0.2550 hn        1 MOL      0.221181
    172 H81        -3.0100   -2.5970   -2.5670 h1        1 MOL      0.008622
    173 H82        -3.1040   -5.5270   -1.7810 hc        1 MOL      0.091679
    174 H83        -1.7380   -4.7970   -2.6020 hc        1 MOL      0.091679
    175 H84        -2.7120   -4.1060   -4.5530 hc        1 MOL      0.117106
    176 H85        -4.4060   -4.7040   -3.9550 hc        1 MOL      0.117106
    177 N15        -1.4350   -3.5340    0.2220 n         1 MOL     -0.471356
    178 C54        -1.8410   -4.9010    0.6920 c3        1 MOL      0.020769
    179 H86        -2.6600   -5.2680    0.0740 h1        1 MOL      0.032285
    180 H87        -0.9920   -5.5800    0.6120 h1        1 MOL      0.032285
    181 H88        -2.1670   -4.8460    1.7310 h1        1 MOL      0.032285
    182 H89        -0.5150   -3.2840    0.5420 hn        1 MOL      0.400523
    183 Ca1        -0.4340    0.6490   -0.8440 Ca        1 MOL      1.762375
    184 O25         1.2690   -0.5480   -2.4790 oh        1 MOL     -0.950466
    185 H90         1.4350    0.0490   -3.2040 ho        1 MOL      0.453588
    186 H91         2.1420   -0.7830   -2.1570 ho        1 MOL      0.453588
    187 O26        -2.9680    0.8680   -1.6550 oh        1 MOL     -0.950466
    188 H92        -3.0200    0.6190   -2.5850 ho        1 MOL      0.453588
    189 H93        -3.7850    0.5390   -1.2810 ho        1 MOL      0.453588
@<TRIPOS>BOND
     1    1    2 1   
     2    1    4 1   
     3    1    5 1   
     4    1    6 1   
     5    2    3 2   
     6    2    7 1   
     7    7    8 1   
     8    7   15 1   
     9    8    9 1   
    10    8   11 1   
    11    8   16 1   
    12    9   10 2   
    13    9   19 1   
    14   11   12 1   
    15   11   17 1   
    16   11   18 1   
    17   12   13 1   
    18   12   14 1   
    19   19   20 1   
    20   19   28 1   
    21   20   21 1   
    22   20   23 1   
    23   20   29 1   
    24   21   22 2   
    25   21   41 1   
    26   23   24 1   
    27   23   30 1   
    28   23   31 1   
    29   24   25 1   
    30   24   32 1   
    31   24   33 1   
    32   25   26 1   
    33   25   34 1   
    34   25   35 1   
    35   26   27 1   
    36   26   36 1   
    37   26   37 1   
    38   27   38 1   
    39   27   39 1   
    40   27   40 1   
    41   41   42 1   
    42   41   49 1   
    43   42   43 1   
    44   42   45 1   
    45   42   50 1   
    46   43   44 2   
    47   43   53 1   
    48   45   46 1   
    49   45   51 1   
    50   45   52 1   
    51   46   47 1   
    52   46   48 1   
    53   53   54 1   
    54   53   57 1   
    55   54   55 1   
    56   54   58 1   
    57   54   59 1   
    58   55   56 2   
    59   55   60 1   
    60   60   61 1   
    61   60   68 1   
    62   61   62 1   
    63   61   64 1   
    64   61   69 1   
    65   62   63 2   
    66   62   72 1   
    67   64   65 1   
    68   64   70 1   
    69   64   71 1   
    70   65   66 1   
    71   65   67 1   
    72   72   73 1   
    73   72   76 1   
    74   73   74 1   
    75   73   77 1   
    76   73   78 1   
    77   74   75 2   
    78   74   79 1   
    79   79   80 1   
    80   79   86 1   
    81   80   81 1   
    82   80   83 1   
    83   80   87 1   
    84   81   82 2   
    85   81   93 1   
    86   83   84 1   
    87   83   85 1   
    88   83   88 1   
    89   84   90 1   
    90   84   91 1   
    91   84   92 1   
    92   85   89 1   
    93   93   94 1   
    94   93  101 1   
    95   94   95 1   
    96   94   97 1   
    97   94  102 1   
    98   95   96 2   
    99   95  112 1   
   100   97   98 1   
   101   97   99 1   
   102   97  103 1   
   103   98  100 1   
   104   98  104 1   
   105   98  105 1   
   106   99  106 1   
   107   99  107 1   
   108   99  108 1   
   109  100  109 1   
   110  100  110 1   
   111  100  111 1   
   112  112  113 1   
   113  112  119 1   
   114  113  114 1   
   115  113  116 1   
   116  113  120 1   
   117  114  115 2   
   118  114  126 1   
   119  116  117 1   
   120  116  118 1   
   121  116  121 1   
   122  117  123 1   
   123  117  124 1   
   124  117  125 1   
   125  118  122 1   
   126  126  127 1   
   127  126  133 1   
   128  127  128 1   
   129  127  130 1   
   130  127  134 1   
   131  128  129 2   
   132  128  140 1   
   133  130  131 1   
   134  130  132 1   
   135  130  135 1   
   136  131  137 1   
   137  131  138 1   
   138  131  139 1   
   139  132  136 1   
   140  140  141 1   
   141  140  149 1   
   142  141  142 1   
   143  141  144 1   
   144  141  150 1   
   145  142  143 2   
   146  142  162 1   
   147  144  145 1   
   148  144  151 1   
   149  144  152 1   
   150  145  146 1   
   151  145  153 1   
   152  145  154 1   
   153  146  147 1   
   154  146  155 1   
   155  146  156 1   
   156  147  148 1   
   157  147  157 1   
   158  147  158 1   
   159  148  159 1   
   160  148  160 1   
   161  148  161 1   
   162  162  163 1   
   163  162  171 1   
   164  163  164 1   
   165  163  166 1   
   166  163  172 1   
   167  164  165 2   
   168  164  177 1   
   169  166  167 1   
   170  166  173 1   
   171  166  174 1   
   172  167  168 1   
   173  167  175 1   
   174  167  176 1   
   175  168  169 1   
   176  168  170 1   
   177  177  178 1   
   178  177  182 1   
   179  178  179 1   
   180  178  180 1   
   181  178  181 1   
   182  184  185 1   
   183  184  186 1   
   184  187  188 1   
   185  187  189 1   
@<TRIPOS>SUBSTRUCTURE
     1 MOL         1 TEMP              0 ****  ****    0 ROOT
