@<TRIPOS>MOLECULE
MOL
  195   189     1     0     0
SMALL
resp


@<TRIPOS>ATOM
      1 C1         12.8540    3.9490   -2.6670 c3        1 MOL     -0.430808
      2 C2         12.4530    2.5590   -2.0120 c         1 MOL      0.715592
      3 O1         13.3190    1.6260   -2.1720 o         1 MOL     -0.545470
      4 H1         13.6780    3.7980   -3.3650 hc        1 MOL      0.112371
      5 H2         11.9980    4.3600   -3.2020 hc        1 MOL      0.112371
      6 H3         13.1630    4.6440   -1.8860 hc        1 MOL      0.112371
      7 N1         11.2050    2.3880   -1.5280 n         1 MOL     -0.345042
      8 C3         10.9470    1.1940   -0.7240 c3        1 MOL     -0.549590
      9 C4          9.4430    0.8270   -0.7250 c         1 MOL      0.996663
     10 O2          8.5070    1.6470   -0.6670 o         1 MOL     -0.708203
     11 C5         11.4600    1.3560    0.7150 c3        1 MOL     -0.089603
     12 C6         11.3960    2.7680    1.2980 c         1 MOL      0.639022
     13 O3         10.3590    3.5030    1.1700 o         1 MOL     -0.656676
     14 O4         12.3590    3.1950    1.9850 o         1 MOL     -0.656676
     15 H4         10.5770    3.1790   -1.5280 hn        1 MOL      0.187380
     16 H5         11.5690    0.3510   -1.0350 h1        1 MOL      0.181084
     17 H6         12.4920    0.9990    0.7340 hc        1 MOL      0.088806
     18 H7         10.7770    0.7930    1.3400 hc        1 MOL      0.088806
     19 N2          9.1670   -0.5190   -0.6440 n         1 MOL     -0.693743
     20 C7          7.7810   -1.0050   -0.7350 c3        1 MOL      0.048435
     21 C8          6.9170   -0.6870    0.3980 c         1 MOL      0.757887
     22 O5          7.1990   -1.1170    1.4760 o         1 MOL     -0.547990
     23 C9          7.7120   -2.5140   -0.9320 c3        1 MOL     -0.228930
     24 C10         8.2720   -2.9080   -2.2620 c3        1 MOL      0.020915
     25 C11         7.3630   -2.6610   -3.5000 c3        1 MOL     -0.182779
     26 C12         6.2000   -3.5670   -3.4050 c3        1 MOL      0.171197
     27 N3          5.1180   -3.2440   -4.3530 n4        1 MOL     -0.530817
     28 H8          9.9040   -1.2110   -0.5540 hn        1 MOL      0.400039
     29 H9          7.2340   -0.5730   -1.5710 h1        1 MOL      0.070531
     30 H10         6.7390   -3.0010   -0.8810 hc        1 MOL      0.104211
     31 H11         8.3840   -2.9100   -0.1610 hc        1 MOL      0.104211
     32 H12         8.3160   -3.9990   -2.1950 hc        1 MOL      0.028062
     33 H13         9.2840   -2.5040   -2.2590 hc        1 MOL      0.028062
     34 H14         7.9940   -2.9040   -4.3640 hc        1 MOL      0.062716
     35 H15         7.0750   -1.6120   -3.5990 hc        1 MOL      0.062716
     36 H16         5.7230   -3.4050   -2.4320 hx        1 MOL      0.083868
     37 H17         6.5350   -4.5980   -3.4470 hx        1 MOL      0.083868
     38 H18         4.3080   -3.7870   -4.0940 hn        1 MOL      0.355901
     39 H19         4.8470   -2.2760   -4.3390 hn        1 MOL      0.355901
     40 H20         5.3020   -3.4980   -5.3140 hn        1 MOL      0.355901
     41 N4          5.7270   -0.0560    0.1910 n         1 MOL     -0.803787
     42 C13         4.7360    0.0950    1.2710 c3        1 MOL      0.134868
     43 C14         3.2450    0.2060    0.7280 c         1 MOL      0.658675
     44 O6          2.9980    0.5650   -0.3680 o         1 MOL     -0.612400
     45 C15         5.0170    1.2240    2.2560 c3        1 MOL     -0.336741
     46 C16         6.0240    2.3150    1.8910 c         1 MOL      0.928908
     47 O7          6.9790    2.6710    2.5790 o         1 MOL     -0.774923
     48 O8          5.7730    3.0010    0.8890 o         1 MOL     -0.774923
     49 H21         5.4760    0.1500   -0.7660 hn        1 MOL      0.326231
     50 H22         4.7660   -0.8050    1.8900 h1        1 MOL      0.136443
     51 H23         5.3160    0.7640    3.1990 hc        1 MOL      0.080376
     52 H24         4.0880    1.7650    2.4440 hc        1 MOL      0.080376
     53 N5          2.1960   -0.0640    1.4440 n         1 MOL     -0.369576
     54 C17         2.1940   -0.7140    2.8060 c3        1 MOL     -0.273578
     55 C18         2.3120   -2.2080    2.7780 c         1 MOL      0.644978
     56 O9          2.9900   -2.7370    1.8820 o         1 MOL     -0.598738
     57 H25         1.3300   -0.0280    0.9140 hn        1 MOL      0.270762
     58 H26         1.2190   -0.4290    3.2020 h1        1 MOL      0.121955
     59 H27         3.0490   -0.3130    3.3460 h1        1 MOL      0.121955
     60 N6          1.6450   -2.9690    3.6830 n         1 MOL     -0.379096
     61 C19         1.7740   -4.4170    3.7330 c3        1 MOL     -0.056672
     62 C20         1.2280   -5.0750    2.4100 c         1 MOL      0.427368
     63 O10         0.0820   -4.7790    2.0260 o         1 MOL     -0.471054
     64 C21         0.8970   -4.8670    4.9380 c3        1 MOL     -0.229903
     65 C22         0.8920   -6.4010    4.9980 c         1 MOL      0.665257
     66 O11         1.9170   -6.9960    5.4340 o         1 MOL     -0.700127
     67 O12        -0.1240   -7.0350    4.5650 o         1 MOL     -0.700127
     68 H28         1.2440   -2.5360    4.5020 hn        1 MOL      0.268896
     69 H29         2.8170   -4.6510    3.9060 h1        1 MOL      0.090687
     70 H30        -0.1040   -4.4250    4.9060 hc        1 MOL      0.068514
     71 H31         1.4370   -4.5460    5.8250 hc        1 MOL      0.068514
     72 N7          2.0760   -5.8280    1.7090 n         1 MOL     -0.215019
     73 C23         1.6220   -6.4910    0.4380 c3        1 MOL     -0.072392
     74 C24         1.2470   -5.6380   -0.7640 c         1 MOL      0.401726
     75 O13         0.9680   -6.2210   -1.8380 o         1 MOL     -0.549357
     76 H32         2.9470   -6.1330    2.1180 hn        1 MOL      0.249062
     77 H33         0.8330   -7.1680    0.7560 h1        1 MOL      0.098328
     78 H34         2.4010   -7.2220    0.2230 h1        1 MOL      0.098328
     79 N8          1.2650   -4.3090   -0.6410 n         1 MOL      0.014838
     80 C25         0.8550   -3.3380   -1.7120 c3        1 MOL      0.090917
     81 C26         0.0720   -2.1600   -1.0220 c         1 MOL      0.232210
     82 O14         0.4870   -1.7900    0.0360 o         1 MOL     -0.249705
     83 C27         2.0500   -2.8770   -2.5920 c3        1 MOL      0.082837
     84 C28         3.2890   -2.5700   -1.8030 c3        1 MOL     -0.346658
     85 O15         2.5050   -3.9330   -3.3310 oh        1 MOL     -0.631166
     86 H35         1.4780   -3.8870    0.2520 hn        1 MOL     -0.041020
     87 H36         0.1600   -3.7970   -2.4140 h1        1 MOL      0.029031
     88 H37         1.6640   -2.0950   -3.2540 h1        1 MOL      0.058176
     89 H38         1.7920   -4.1770   -3.9280 ho        1 MOL      0.413805
     90 H39         4.0260   -2.1690   -2.4970 hc        1 MOL      0.115142
     91 H40         2.9490   -1.8240   -1.0880 hc        1 MOL      0.115142
     92 H41         3.6520   -3.4550   -1.2910 hc        1 MOL      0.115142
     93 N9         -0.8850   -1.5000   -1.7040 n         1 MOL     -0.310780
     94 C29        -1.3330   -0.1910   -1.3330 c3        1 MOL     -0.037759
     95 C30        -2.4960   -0.3210   -0.3110 c         1 MOL      0.273349
     96 O16        -2.7190    0.5660    0.5620 o         1 MOL     -0.481259
     97 C31        -1.7320    0.5300   -2.6480 c3        1 MOL      0.096424
     98 C32        -0.5520    0.6130   -3.6960 c3        1 MOL     -0.091481
     99 C33        -2.1900    1.9580   -2.4090 c3        1 MOL     -0.347781
    100 C34         0.8030    1.0510   -3.1040 c3        1 MOL     -0.085777
    101 H42        -1.1930   -1.8530   -2.6000 hn        1 MOL      0.301404
    102 H43        -0.6030    0.4210   -0.8110 h1        1 MOL      0.141460
    103 H44        -2.5070   -0.0160   -3.1800 hc        1 MOL      0.022319
    104 H45        -0.7650    1.3130   -4.4990 hc        1 MOL      0.015583
    105 H46        -0.5120   -0.4010   -4.1140 hc        1 MOL      0.015583
    106 H47        -2.3990    2.4630   -3.3460 hc        1 MOL      0.110428
    107 H48        -3.1530    2.0010   -1.9020 hc        1 MOL      0.110428
    108 H49        -1.4560    2.5410   -1.8630 hc        1 MOL      0.110428
    109 H50         0.9710    0.4160   -2.2320 hc        1 MOL      0.038348
    110 H51         1.5640    1.0410   -3.8780 hc        1 MOL      0.038348
    111 H52         0.7550    2.0440   -2.6510 hc        1 MOL      0.038348
    112 N10        -3.4170   -1.2140   -0.6410 n         1 MOL     -0.049912
    113 C35        -4.7840   -1.4650   -0.1620 c3        1 MOL     -0.223221
    114 C36        -5.7830   -1.7690   -1.3140 c         1 MOL      0.578302
    115 O17        -5.5100   -2.5110   -2.2660 o         1 MOL     -0.519745
    116 C37        -4.8350   -2.5080    0.9450 c3        1 MOL      0.391773
    117 C38        -4.0220   -3.7800    0.6640 c3        1 MOL     -0.410383
    118 O18        -4.2350   -1.7980    2.0530 oh        1 MOL     -0.633618
    119 H53        -3.1410   -1.8270   -1.3950 hn        1 MOL      0.109980
    120 H54        -5.1440   -0.5300    0.2560 h1        1 MOL      0.117401
    121 H55        -5.8840   -2.7120    1.1700 h1        1 MOL      0.047083
    122 H56        -3.3410   -1.5630    1.8100 ho        1 MOL      0.420037
    123 H57        -4.6120   -4.2500   -0.1210 hc        1 MOL      0.118578
    124 H58        -3.0090   -3.5580    0.3360 hc        1 MOL      0.118578
    125 H59        -3.8730   -4.4340    1.5250 hc        1 MOL      0.118578
    126 N11        -7.0080   -1.2410   -1.2300 n         1 MOL     -0.534769
    127 C39        -8.1480   -1.6750   -2.0800 c3        1 MOL     -0.009751
    128 C40        -9.1680   -0.6180   -2.2620 c         1 MOL      0.607207
    129 O19        -9.5810   -0.2740   -3.3750 o         1 MOL     -0.557492
    130 C41        -8.7290   -2.9740   -1.6010 c3        1 MOL      0.344538
    131 C42        -9.7880   -3.6200   -2.5800 c3        1 MOL     -0.588543
    132 O20        -9.2500   -2.9540   -0.2720 oh        1 MOL     -0.637100
    133 H60        -7.2530   -0.7330   -0.3870 hn        1 MOL      0.302587
    134 H61        -7.7730   -1.9360   -3.0750 h1        1 MOL      0.103558
    135 H62        -7.9440   -3.7220   -1.6400 h1        1 MOL      0.032928
    136 H63        -8.5950   -3.4880    0.1860 ho        1 MOL      0.392055
    137 H64        -9.4090   -3.5600   -3.6040 hc        1 MOL      0.164380
    138 H65        -9.9890   -4.6690   -2.3610 hc        1 MOL      0.164380
    139 H66       -10.7060   -3.0740   -2.3630 hc        1 MOL      0.164380
    140 N12        -9.6410   -0.0060   -1.1540 n         1 MOL     -0.442121
    141 C43       -10.5730    1.1560   -1.1790 c3        1 MOL      0.003758
    142 C44       -10.3040    1.9610    0.0500 c         1 MOL      0.534347
    143 O21        -9.9440    1.4370    1.0900 o         1 MOL     -0.504921
    144 C45       -12.1190    0.7440   -1.1390 c3        1 MOL     -0.188382
    145 C46       -12.4700   -0.3830   -0.1020 c3        1 MOL      0.047339
    146 C47       -13.9260   -0.4540    0.4220 c3        1 MOL      0.056526
    147 C48       -14.2740   -1.8950    0.8320 c3        1 MOL     -0.183958
    148 N13       -15.6970   -2.2160    0.6930 n4        1 MOL     -0.107326
    149 H67        -9.3110   -0.2660   -0.2330 hn        1 MOL      0.251703
    150 H68       -10.2930    1.7990   -2.0080 h1        1 MOL      0.116928
    151 H69       -12.4240    0.4250   -2.1410 hc        1 MOL      0.065306
    152 H70       -12.7140    1.5930   -0.7920 hc        1 MOL      0.065306
    153 H71       -11.8540   -0.3380    0.7990 hc        1 MOL      0.038230
    154 H72       -12.2790   -1.3370   -0.5780 hc        1 MOL      0.038230
    155 H73       -14.6030   -0.0870   -0.3460 hc        1 MOL      0.027325
    156 H74       -13.9860    0.2550    1.2460 hc        1 MOL      0.027325
    157 H75       -14.0580   -2.0400    1.9010 hx        1 MOL      0.126278
    158 H76       -13.7670   -2.5900    0.1600 hx        1 MOL      0.126278
    159 H77       -15.8620   -3.1360    1.0680 hn        1 MOL      0.215733
    160 H78       -16.3040   -1.5750    1.1960 hn        1 MOL      0.215733
    161 H79       -15.9560   -2.2940   -0.2750 hn        1 MOL      0.215733
    162 N14       -10.3680    3.2730   -0.0930 n         1 MOL     -0.497749
    163 C49       -10.1820    4.2820    0.9110 c3        1 MOL      0.445557
    164 C50        -8.7260    4.5580    1.4020 c         1 MOL      0.238320
    165 O22        -8.5700    4.4600    2.6410 o         1 MOL     -0.522840
    166 C51       -10.8220    5.5800    0.4840 c3        1 MOL     -0.005973
    167 C52       -11.0080    6.6280    1.6100 c3        1 MOL     -0.251991
    168 C53       -11.2250    7.9830    0.8700 c         1 MOL      0.774364
    169 O23       -11.8880    8.0420   -0.2050 o         1 MOL     -0.671158
    170 O24       -10.9010    9.0120    1.4780 o         1 MOL     -0.671158
    171 H80       -10.6800    3.6080   -0.9860 hn        1 MOL      0.238066
    172 H81       -10.7020    3.9570    1.8070 h1        1 MOL     -0.023717
    173 H82       -11.8570    5.3360    0.2190 hc        1 MOL     -0.021148
    174 H83       -10.2540    6.0030   -0.3450 hc        1 MOL     -0.021148
    175 H84       -10.1250    6.7560    2.2510 hc        1 MOL      0.066767
    176 H85       -11.9160    6.3560    2.1430 hc        1 MOL      0.066767
    177 N15        -7.6710    4.8730    0.6520 n         1 MOL     -0.214268
    178 C54        -7.5880    5.2320   -0.7570 c3        1 MOL     -0.209540
    179 H86        -6.5540    5.1510   -1.0920 h1        1 MOL      0.094736
    180 H87        -8.2140    4.5580   -1.3420 h1        1 MOL      0.094736
    181 H88        -7.9340    6.2580   -0.8930 h1        1 MOL      0.094736
    182 H89        -6.8120    4.9390    1.1910 hn        1 MOL      0.275318
    183 Ca1         8.0350    4.1840    0.5800 Ca        1 MOL      1.694108
    184 O25         6.3610    6.0070    1.6940 oh        1 MOL     -0.820986
    185 O26         9.4990    6.3000    0.2830 oh        1 MOL     -0.820986
    186 H90         5.6900    6.2670    1.0640 ho        1 MOL      0.411418
    187 H91        10.1820    6.7110   -0.2480 ho        1 MOL      0.411418
    188 H92         6.4740    6.7710    2.2660 ho        1 MOL      0.411418
    189 H93         9.9070    6.1710    1.1380 ho        1 MOL      0.411418
    190 O27         9.1800    5.4840    2.7950 oh        1 MOL     -0.820986
    191 H94         9.4610    6.3230    3.1540 ho        1 MOL      0.411418
    192 H95         9.7120    4.8360    3.2750 ho        1 MOL      0.411418
    193 O28         8.6530    4.4300   -2.1170 oh        1 MOL     -0.820986
    194 H96         8.9190    3.9650   -2.9160 ho        1 MOL      0.411418
    195 H97         7.9810    5.0440   -2.4070 ho        1 MOL      0.411418
@<TRIPOS>BOND
     1    1    2 1   
     2    1    4 1   
     3    1    5 1   
     4    1    6 1   
     5    2    3 2   
     6    2    7 1   
     7    7    8 1   
     8    7   15 1   
     9    8    9 1   
    10    8   11 1   
    11    8   16 1   
    12    9   10 2   
    13    9   19 1   
    14   11   12 1   
    15   11   17 1   
    16   11   18 1   
    17   12   13 1   
    18   12   14 1   
    19   19   20 1   
    20   19   28 1   
    21   20   21 1   
    22   20   23 1   
    23   20   29 1   
    24   21   22 2   
    25   21   41 1   
    26   23   24 1   
    27   23   30 1   
    28   23   31 1   
    29   24   25 1   
    30   24   32 1   
    31   24   33 1   
    32   25   26 1   
    33   25   34 1   
    34   25   35 1   
    35   26   27 1   
    36   26   36 1   
    37   26   37 1   
    38   27   38 1   
    39   27   39 1   
    40   27   40 1   
    41   41   42 1   
    42   41   49 1   
    43   42   43 1   
    44   42   45 1   
    45   42   50 1   
    46   43   44 2   
    47   43   53 1   
    48   45   46 1   
    49   45   51 1   
    50   45   52 1   
    51   46   47 1   
    52   46   48 1   
    53   53   54 1   
    54   53   57 1   
    55   54   55 1   
    56   54   58 1   
    57   54   59 1   
    58   55   56 2   
    59   55   60 1   
    60   60   61 1   
    61   60   68 1   
    62   61   62 1   
    63   61   64 1   
    64   61   69 1   
    65   62   63 2   
    66   62   72 1   
    67   64   65 1   
    68   64   70 1   
    69   64   71 1   
    70   65   66 1   
    71   65   67 1   
    72   72   73 1   
    73   72   76 1   
    74   73   74 1   
    75   73   77 1   
    76   73   78 1   
    77   74   75 2   
    78   74   79 1   
    79   79   80 1   
    80   79   86 1   
    81   80   81 1   
    82   80   83 1   
    83   80   87 1   
    84   81   82 2   
    85   81   93 1   
    86   83   84 1   
    87   83   85 1   
    88   83   88 1   
    89   84   90 1   
    90   84   91 1   
    91   84   92 1   
    92   85   89 1   
    93   93   94 1   
    94   93  101 1   
    95   94   95 1   
    96   94   97 1   
    97   94  102 1   
    98   95   96 2   
    99   95  112 1   
   100   97   98 1   
   101   97   99 1   
   102   97  103 1   
   103   98  100 1   
   104   98  104 1   
   105   98  105 1   
   106   99  106 1   
   107   99  107 1   
   108   99  108 1   
   109  100  109 1   
   110  100  110 1   
   111  100  111 1   
   112  112  113 1   
   113  112  119 1   
   114  113  114 1   
   115  113  116 1   
   116  113  120 1   
   117  114  115 2   
   118  114  126 1   
   119  116  117 1   
   120  116  118 1   
   121  116  121 1   
   122  117  123 1   
   123  117  124 1   
   124  117  125 1   
   125  118  122 1   
   126  126  127 1   
   127  126  133 1   
   128  127  128 1   
   129  127  130 1   
   130  127  134 1   
   131  128  129 2   
   132  128  140 1   
   133  130  131 1   
   134  130  132 1   
   135  130  135 1   
   136  131  137 1   
   137  131  138 1   
   138  131  139 1   
   139  132  136 1   
   140  140  141 1   
   141  140  149 1   
   142  141  142 1   
   143  141  144 1   
   144  141  150 1   
   145  142  143 2   
   146  142  162 1   
   147  144  145 1   
   148  144  151 1   
   149  144  152 1   
   150  145  146 1   
   151  145  153 1   
   152  145  154 1   
   153  146  147 1   
   154  146  155 1   
   155  146  156 1   
   156  147  148 1   
   157  147  157 1   
   158  147  158 1   
   159  148  159 1   
   160  148  160 1   
   161  148  161 1   
   162  162  163 1   
   163  162  171 1   
   164  163  164 1   
   165  163  166 1   
   166  163  172 1   
   167  164  165 2   
   168  164  177 1   
   169  166  167 1   
   170  166  173 1   
   171  166  174 1   
   172  167  168 1   
   173  167  175 1   
   174  167  176 1   
   175  168  169 1   
   176  168  170 1   
   177  177  178 1   
   178  177  182 1   
   179  178  179 1   
   180  178  180 1   
   181  178  181 1   
   182  184  186 1   
   183  184  188 1   
   184  185  187 1   
   185  185  189 1   
   186  190  191 1   
   187  190  192 1   
   188  193  194 1   
   189  193  195 1   
@<TRIPOS>SUBSTRUCTURE
     1 MOL         1 TEMP              0 ****  ****    0 ROOT
