@<TRIPOS>MOLECULE
MOL
  175   173     1     0     0
SMALL
resp


@<TRIPOS>ATOM
      1 C1         -7.0920    8.0100    1.0590 c3        1 MOL     -0.462463
      2 C2         -8.0590    6.9860    0.3690 c         1 MOL      0.649035
      3 O1         -8.3340    7.0760   -0.8240 o         1 MOL     -0.567205
      4 H1         -7.5990    8.9690    1.1710 hc        1 MOL      0.111021
      5 H2         -6.8040    7.6350    2.0410 hc        1 MOL      0.111021
      6 H3         -6.2010    8.1400    0.4440 hc        1 MOL      0.111021
      7 N1         -8.5920    6.0270    1.1210 n         1 MOL     -0.397748
      8 C3         -9.5840    5.0320    0.5260 c3        1 MOL     -0.047425
      9 C4         -8.8980    3.8560   -0.2910 c         1 MOL      0.555281
     10 O2         -9.4570    3.2300   -1.1790 o         1 MOL     -0.501970
     11 C5        -10.4760    4.5890    1.6770 c3        1 MOL     -0.156040
     12 C6        -11.6610    3.7860    1.1530 c         1 MOL      0.724262
     13 O3        -12.6950    4.4090    0.8140 o         1 MOL     -0.731275
     14 O4        -11.6370    2.5540    1.2200 o         1 MOL     -0.731275
     15 H4         -8.3160    5.9220    2.0900 hn        1 MOL      0.262950
     16 H5        -10.1630    5.5780   -0.2160 h1        1 MOL      0.107334
     17 H6        -10.8470    5.4160    2.2800 hc        1 MOL      0.009506
     18 H7         -9.8550    3.9740    2.3290 hc        1 MOL      0.009506
     19 N2         -7.5800    3.6250   -0.0680 n         1 MOL     -0.458907
     20 C7         -6.7140    2.7350   -0.8810 c3        1 MOL      0.131287
     21 C8         -5.3850    2.3180   -0.1480 c         1 MOL      0.523192
     22 O5         -4.9010    3.0450    0.6740 o         1 MOL     -0.523797
     23 C9         -6.3990    3.5480   -2.1420 c3        1 MOL     -0.059079
     24 H8         -7.1430    4.0830    0.7200 hn        1 MOL      0.237382
     25 H9         -7.2540    1.8530   -1.2390 h1        1 MOL      0.014771
     26 H10        -6.0210    4.5410   -1.9280 hc        1 MOL      0.026907
     27 H11        -5.7300    3.0630   -2.8470 hc        1 MOL      0.026907
     28 H12        -7.3130    3.7240   -2.7040 hc        1 MOL      0.026907
     29 N3         -4.8320    1.1550   -0.4970 n         1 MOL     -0.398605
     30 C10        -5.2940    0.1010   -1.4340 c3        1 MOL     -0.031332
     31 C11        -5.4970   -1.2850   -0.7460 c         1 MOL      0.429446
     32 O6         -4.6470   -1.7610   -0.0000 o         1 MOL     -0.508758
     33 C12        -4.4240   -0.0820   -2.6680 c3        1 MOL     -0.219197
     34 C13        -2.9480   -0.3100   -2.3470 c         1 MOL      0.733003
     35 O7         -2.4580   -1.4270   -2.6170 o         1 MOL     -0.729520
     36 O8         -2.1990    0.4150   -1.7020 o         1 MOL     -0.729520
     37 H13        -3.9100    1.0620   -0.1050 hn        1 MOL      0.274187
     38 H14        -6.2710    0.3670   -1.8410 h1        1 MOL      0.111648
     39 H15        -4.5100    0.8660   -3.2060 hc        1 MOL      0.058797
     40 H16        -4.8320   -0.8740   -3.2890 hc        1 MOL      0.058797
     41 N4         -6.5790   -2.0220   -1.0720 n         1 MOL     -0.353588
     42 C14        -6.8900   -3.3700   -0.6190 c3        1 MOL      0.033885
     43 C15        -6.6030   -4.4530   -1.6770 c         1 MOL      0.558047
     44 O9         -7.4930   -4.8790   -2.4000 o         1 MOL     -0.577973
     45 H17        -7.1350   -1.5940   -1.8000 hn        1 MOL      0.285257
     46 H18        -7.9560   -3.4070   -0.3990 h1        1 MOL      0.068160
     47 H19        -6.4540   -3.5900    0.3510 h1        1 MOL      0.068160
     48 N5         -5.4040   -4.9440   -1.9500 n         1 MOL     -0.517229
     49 C16        -4.1030   -4.5820   -1.2550 c3        1 MOL      0.044860
     50 C17        -4.1820   -5.0780    0.1950 c         1 MOL      0.461556
     51 O10        -4.6820   -6.1530    0.4970 o         1 MOL     -0.531010
     52 C18        -2.9170   -5.1490   -2.0820 c3        1 MOL     -0.281222
     53 C19        -1.5280   -4.5790   -1.6840 c         1 MOL      0.586236
     54 N6         -0.4670   -4.9870   -2.3770 n         1 MOL     -0.704874
     55 O11        -1.3780   -3.7550   -0.8110 o         1 MOL     -0.666380
     56 H20        -5.2990   -5.3870   -2.8490 hn        1 MOL      0.318758
     57 H21        -4.1770   -3.5080   -1.3730 h1        1 MOL      0.145371
     58 H22        -2.9860   -5.0420   -3.1660 hc        1 MOL      0.110271
     59 H23        -2.8690   -6.2240   -1.8830 hc        1 MOL      0.110271
     60 H24        -0.5740   -5.7330   -3.0590 hn        1 MOL      0.334327
     61 H25         0.4430   -4.5730   -2.2210 hn        1 MOL      0.334327
     62 N7         -3.6750   -4.1840    1.0790 n         1 MOL     -0.116369
     63 C20        -3.4290   -4.4870    2.5070 c3        1 MOL     -0.296078
     64 C21        -1.9280   -4.9040    2.8120 c         1 MOL      0.611611
     65 O12        -1.6300   -5.3280    3.9400 o         1 MOL     -0.598534
     66 H26        -3.5580   -3.2230    0.7810 hn        1 MOL      0.193578
     67 H27        -3.9400   -5.4280    2.7160 h1        1 MOL      0.122563
     68 H28        -3.7730   -3.6480    3.1100 h1        1 MOL      0.122563
     69 N8         -0.9750   -4.7490    1.8940 n         1 MOL     -0.368852
     70 C22         0.4990   -4.9600    2.0960 c3        1 MOL     -0.013778
     71 C23         1.1170   -3.6060    1.8790 c         1 MOL      0.496305
     72 O13         0.5940   -2.7860    1.1010 o         1 MOL     -0.589044
     73 C24         1.0520   -6.1170    1.2640 c3        1 MOL      0.415704
     74 C25         0.3880   -7.3600    1.9310 c3        1 MOL     -0.375293
     75 O14         0.8540   -6.1280   -0.1250 oh        1 MOL     -0.673742
     76 H29        -1.1420   -4.5220    0.9190 hn        1 MOL      0.376296
     77 H30         0.6820   -5.2130    3.1380 h1        1 MOL      0.057266
     78 H31         2.1260   -6.2180    1.4290 h1        1 MOL     -0.019347
     79 H32         1.5860   -5.6530   -0.5320 ho        1 MOL      0.472070
     80 H33         0.5940   -7.2360    2.9920 hc        1 MOL      0.083119
     81 H34        -0.6530   -7.3190    1.6260 hc        1 MOL      0.083119
     82 H35         0.8520   -8.3200    1.6820 hc        1 MOL      0.083119
     83 N9          2.2590   -3.3470    2.4940 n         1 MOL     -0.458022
     84 C26         3.1950   -2.1430    2.2700 c3        1 MOL      0.417108
     85 C27         4.1830   -2.6370    1.2850 c         1 MOL      0.111823
     86 O15         5.0340   -3.5710    1.5560 o         1 MOL     -0.536839
     87 C28         3.9300   -1.7370    3.6190 c3        1 MOL      0.069393
     88 C29         4.4880   -0.2720    3.6400 c3        1 MOL      0.064528
     89 C30         3.0810   -1.8280    4.9170 c3        1 MOL     -0.433206
     90 C31         3.4150    0.8290    3.9010 c3        1 MOL     -0.379116
     91 H36         2.5020   -4.0400    3.1830 hn        1 MOL      0.258603
     92 H37         2.6420   -1.2620    1.9550 h1        1 MOL      0.009071
     93 H38         4.7700   -2.4140    3.7630 hc        1 MOL      0.017003
     94 H39         4.9140   -0.1130    2.6430 hc        1 MOL     -0.012928
     95 H40         5.3660   -0.1510    4.2630 hc        1 MOL     -0.012928
     96 H41         3.6450   -1.3790    5.7420 hc        1 MOL      0.107103
     97 H42         2.1090   -1.3430    4.8110 hc        1 MOL      0.107103
     98 H43         2.9970   -2.8890    5.1420 hc        1 MOL      0.107103
     99 H44         2.5440    0.7320    3.2410 hc        1 MOL      0.110911
    100 H45         3.1100    0.7270    4.9430 hc        1 MOL      0.110911
    101 H46         3.9120    1.7840    3.7140 hc        1 MOL      0.110911
    102 N10         4.1680   -2.0900    0.0460 n         1 MOL     -0.043198
    103 C32         4.9030   -2.5590   -1.1630 c3        1 MOL      0.229762
    104 C33         5.8840   -1.4860   -1.5960 c         1 MOL      0.434525
    105 O16         6.4830   -1.6340   -2.6380 o         1 MOL     -0.534775
    106 C34         3.9200   -2.9740   -2.2150 c3        1 MOL     -0.302837
    107 C35         2.6620   -3.7370   -1.7140 c         1 MOL      0.805238
    108 O17         2.8570   -4.8990   -1.2570 o         1 MOL     -0.711158
    109 O18         1.5390   -3.1810   -1.7670 o         1 MOL     -0.711158
    110 H47         3.4880   -1.3500    0.0280 hn        1 MOL      0.090983
    111 H48         5.5020   -3.4440   -0.9500 h1        1 MOL      0.068911
    112 H49         4.4380   -3.6030   -2.9460 hc        1 MOL      0.053489
    113 H50         3.4940   -2.0290   -2.5650 hc        1 MOL      0.053489
    114 N11         6.1030   -0.3940   -0.8310 n         1 MOL     -0.460785
    115 C36         7.1290    0.6480   -1.0680 c3        1 MOL      0.376738
    116 C37         6.6810    2.0610   -0.5270 c         1 MOL      0.472921
    117 O19         6.1140    2.1330    0.5950 o         1 MOL     -0.503943
    118 C38         8.3830    0.2190   -0.2740 c3        1 MOL     -0.345302
    119 C39         9.6780    1.1690   -0.3080 ca        1 MOL      0.108602
    120 C40        10.0170    2.0030    0.7750 ca        1 MOL     -0.123733
    121 C41        10.3880    1.1780   -1.4820 ca        1 MOL     -0.123733
    122 C42        11.1250    2.8810    0.5840 ca        1 MOL     -0.141964
    123 C43        11.4810    2.0350   -1.6350 ca        1 MOL     -0.141964
    124 C44        11.8400    2.8430   -0.5770 ca        1 MOL     -0.083460
    125 H51         5.5370   -0.3510    0.0050 hn        1 MOL      0.202659
    126 H52         7.3670    0.7440   -2.1200 h1        1 MOL     -0.025582
    127 H53         8.7350   -0.7170   -0.7190 hc        1 MOL      0.112918
    128 H54         8.0670   -0.0250    0.7390 hc        1 MOL      0.112918
    129 H55         9.3850    2.0340    1.6500 ha        1 MOL      0.121434
    130 H56        10.1730    0.5470   -2.3280 ha        1 MOL      0.121434
    131 H57        11.4030    3.5480    1.3830 ha        1 MOL      0.111266
    132 H58        11.8300    2.1910   -2.6410 ha        1 MOL      0.111266
    133 H59        12.6420    3.5670   -0.6800 ha        1 MOL      0.090541
    134 N12         6.7940    3.1870   -1.2780 n         1 MOL     -0.431528
    135 C45         6.6660    4.5120   -0.7460 c3        1 MOL      0.172733
    136 C46         5.3040    4.9750   -0.3620 c         1 MOL      0.210976
    137 O20         5.0920    6.1430   -0.0410 o         1 MOL     -0.516629
    138 C47         7.2160    5.4940   -1.8180 c3        1 MOL      0.020405
    139 C48         8.1740    4.6640   -2.6960 c3        1 MOL     -0.171339
    140 C49         7.5430    3.2910   -2.5520 c3        1 MOL      0.189279
    141 H60         7.3460    4.6040    0.0990 h1        1 MOL      0.056322
    142 H61         6.3880    5.8580   -2.4280 hc        1 MOL      0.043721
    143 H62         7.6190    6.4320   -1.4200 hc        1 MOL      0.043721
    144 H63         8.1900    5.0220   -3.7190 hc        1 MOL      0.052508
    145 H64         9.1120    4.6740   -2.1500 hc        1 MOL      0.052508
    146 H65         6.9270    3.1490   -3.4450 h1        1 MOL      0.021866
    147 H66         8.3670    2.5830   -2.6240 h1        1 MOL      0.021866
    148 N13         4.2800    4.1360   -0.3910 n         1 MOL     -0.081024
    149 C50         2.9940    4.4040    0.1170 c3        1 MOL     -0.216802
    150 C51         2.9500    4.7820    1.6110 c         1 MOL      0.506518
    151 O21         1.9350    5.2820    2.0330 o         1 MOL     -0.518959
    152 C52         1.9760    3.2520   -0.1750 c3        1 MOL     -0.021437
    153 C53         2.3220    1.9670    0.6450 c3        1 MOL      0.067936
    154 C54         1.4110    0.7720    0.2850 c         1 MOL      0.646711
    155 O22         0.2070    0.8550    0.4830 o         1 MOL     -0.711618
    156 O23         1.8690   -0.1960   -0.3080 o         1 MOL     -0.711618
    157 H67         4.4870    3.1470   -0.4960 hn        1 MOL      0.141097
    158 H68         2.6120    5.2710   -0.4260 h1        1 MOL      0.142760
    159 H69         2.0610    3.1080   -1.2560 hc        1 MOL      0.036122
    160 H70         0.9820    3.5990    0.1150 hc        1 MOL      0.036122
    161 H71         2.2400    2.2430    1.6930 hc        1 MOL     -0.028722
    162 H72         3.3660    1.7070    0.4570 hc        1 MOL     -0.028722
    163 N14         4.0400    4.5810    2.3680 n         1 MOL     -0.109972
    164 C55         4.1290    5.0880    3.7250 c3        1 MOL     -0.208975
    165 H73         4.0120    6.1710    3.7160 h1        1 MOL      0.082348
    166 H74         3.3400    4.6440    4.3320 h1        1 MOL      0.082348
    167 H75         5.1010    4.8320    4.1460 h1        1 MOL      0.082348
    168 H76         4.7610    4.0060    1.9630 hn        1 MOL      0.192596
    169 Ca1        -0.2400   -1.4430   -1.0490 Ca        1 MOL      1.779787
    170 O24        -2.3120   -1.4540    0.9520 oh        1 MOL     -0.899097
    171 H77        -2.1200   -0.5260    1.1320 ho        1 MOL      0.433841
    172 H78        -3.2480   -1.4630    0.7390 ho        1 MOL      0.433841
    173 O25         0.5980    0.1700   -3.1340 oh        1 MOL     -0.899097
    174 H79         0.8550    0.2640   -4.0550 ho        1 MOL      0.433841
    175 H80         0.5550    1.0690   -2.8010 ho        1 MOL      0.433841
@<TRIPOS>BOND
     1    1    2 1   
     2    1    4 1   
     3    1    5 1   
     4    1    6 1   
     5    2    3 2   
     6    2    7 1   
     7    7    8 1   
     8    7   15 1   
     9    8    9 1   
    10    8   11 1   
    11    8   16 1   
    12    9   10 2   
    13    9   19 1   
    14   11   12 1   
    15   11   17 1   
    16   11   18 1   
    17   12   13 1   
    18   12   14 1   
    19   19   20 1   
    20   19   24 1   
    21   20   21 1   
    22   20   23 1   
    23   20   25 1   
    24   21   22 2   
    25   21   29 1   
    26   23   26 1   
    27   23   27 1   
    28   23   28 1   
    29   29   30 1   
    30   29   37 1   
    31   30   31 1   
    32   30   33 1   
    33   30   38 1   
    34   31   32 2   
    35   31   41 1   
    36   33   34 1   
    37   33   39 1   
    38   33   40 1   
    39   34   35 1   
    40   34   36 1   
    41   41   42 1   
    42   41   45 1   
    43   42   43 1   
    44   42   46 1   
    45   42   47 1   
    46   43   44 2   
    47   43   48 1   
    48   48   49 1   
    49   48   56 1   
    50   49   50 1   
    51   49   52 1   
    52   49   57 1   
    53   50   51 2   
    54   50   62 1   
    55   52   53 1   
    56   52   58 1   
    57   52   59 1   
    58   53   54 1   
    59   53   55 2   
    60   54   60 1   
    61   54   61 1   
    62   62   63 1   
    63   62   66 1   
    64   63   64 1   
    65   63   67 1   
    66   63   68 1   
    67   64   65 2   
    68   64   69 1   
    69   69   70 1   
    70   69   76 1   
    71   70   71 1   
    72   70   73 1   
    73   70   77 1   
    74   71   72 2   
    75   71   83 1   
    76   73   74 1   
    77   73   75 1   
    78   73   78 1   
    79   74   80 1   
    80   74   81 1   
    81   74   82 1   
    82   75   79 1   
    83   83   84 1   
    84   83   91 1   
    85   84   85 1   
    86   84   87 1   
    87   84   92 1   
    88   85   86 2   
    89   85  102 1   
    90   87   88 1   
    91   87   89 1   
    92   87   93 1   
    93   88   90 1   
    94   88   94 1   
    95   88   95 1   
    96   89   96 1   
    97   89   97 1   
    98   89   98 1   
    99   90   99 1   
   100   90  100 1   
   101   90  101 1   
   102  102  103 1   
   103  102  110 1   
   104  103  104 1   
   105  103  106 1   
   106  103  111 1   
   107  104  105 2   
   108  104  114 1   
   109  106  107 1   
   110  106  112 1   
   111  106  113 1   
   112  107  108 1   
   113  107  109 1   
   114  114  115 1   
   115  114  125 1   
   116  115  116 1   
   117  115  118 1   
   118  115  126 1   
   119  116  117 2   
   120  116  134 1   
   121  118  119 1   
   122  118  127 1   
   123  118  128 1   
   124  119  120 ar  
   125  119  121 ar  
   126  120  122 ar  
   127  120  129 1   
   128  121  123 ar  
   129  121  130 1   
   130  122  124 ar  
   131  122  131 1   
   132  123  124 ar  
   133  123  132 1   
   134  124  133 1   
   135  134  135 1   
   136  134  140 1   
   137  135  136 1   
   138  135  138 1   
   139  135  141 1   
   140  136  137 2   
   141  136  148 1   
   142  138  139 1   
   143  138  142 1   
   144  138  143 1   
   145  139  140 1   
   146  139  144 1   
   147  139  145 1   
   148  140  146 1   
   149  140  147 1   
   150  148  149 1   
   151  148  157 1   
   152  149  150 1   
   153  149  152 1   
   154  149  158 1   
   155  150  151 2   
   156  150  163 1   
   157  152  153 1   
   158  152  159 1   
   159  152  160 1   
   160  153  154 1   
   161  153  161 1   
   162  153  162 1   
   163  154  155 1   
   164  154  156 1   
   165  163  164 1   
   166  163  168 1   
   167  164  165 1   
   168  164  166 1   
   169  164  167 1   
   170  170  171 1   
   171  170  172 1   
   172  173  174 1   
   173  173  175 1   
@<TRIPOS>SUBSTRUCTURE
     1 MOL         1 TEMP              0 ****  ****    0 ROOT
