@<TRIPOS>MOLECULE
MOL
  182   178     1     0     0
SMALL
resp


@<TRIPOS>ATOM
      1 C1         -2.5670   -3.2140    5.7840 c3        1 MOL     -0.348414
      2 C2         -2.2490   -2.7710    4.3830 c         1 MOL      0.651518
      3 O1         -3.0420   -2.7740    3.4090 o         1 MOL     -0.579003
      4 H1         -1.6410   -3.4430    6.3110 hc        1 MOL      0.101949
      5 H2         -3.0950   -2.4160    6.3070 hc        1 MOL      0.101949
      6 H3         -3.1950   -4.1050    5.7500 hc        1 MOL      0.101949
      7 N1         -0.9340   -2.4380    4.2060 n         1 MOL     -0.612824
      8 C3         -0.1780   -2.2710    2.9480 c3        1 MOL      0.061978
      9 C4         -0.4710   -3.4210    1.9260 c         1 MOL      0.850200
     10 O2         -0.2410   -4.5440    2.2160 o         1 MOL     -0.564372
     11 C5          1.3280   -2.0140    3.1210 c3        1 MOL     -0.079157
     12 C6          1.9810   -1.5900    1.8540 c         1 MOL      0.441971
     13 O3          3.0880   -1.0380    1.8910 o         1 MOL     -0.635581
     14 O4          1.3940   -1.6730    0.7140 o         1 MOL     -0.635581
     15 H4         -0.4170   -2.4130    5.0800 hn        1 MOL      0.310228
     16 H5         -0.5690   -1.3890    2.4410 h1        1 MOL      0.047277
     17 H6          1.8430   -2.9280    3.4290 hc        1 MOL      0.079529
     18 H7          1.5360   -1.1840    3.7870 hc        1 MOL      0.079529
     19 N2         -1.1440   -2.9830    0.7910 n         1 MOL     -0.483940
     20 C7         -1.6210   -3.8330   -0.3610 c3        1 MOL     -0.057612
     21 C8         -0.5010   -4.3760   -1.3490 c         1 MOL      0.459366
     22 O5         -0.8130   -5.1790   -2.2330 o         1 MOL     -0.524500
     23 C9         -2.6200   -2.9400   -1.0400 c3        1 MOL      0.121830
     24 C10        -3.5290   -3.6760   -1.9740 c3        1 MOL     -0.171938
     25 C11        -4.6390   -4.4930   -1.3140 c3        1 MOL      0.202412
     26 C12        -5.6790   -5.1660   -2.1760 c3        1 MOL     -0.010031
     27 N3         -6.7320   -5.8260   -1.4100 n4        1 MOL     -0.334881
     28 H8         -1.4560   -2.0210    0.8520 hn        1 MOL      0.163972
     29 H9         -2.1260   -4.7300    0.0010 h1        1 MOL      0.096723
     30 H10        -2.1710   -2.0590   -1.5010 hc        1 MOL      0.027484
     31 H11        -3.2340   -2.4540   -0.2850 hc        1 MOL      0.027484
     32 H12        -3.0300   -4.3330   -2.6970 hc        1 MOL      0.023137
     33 H13        -4.0610   -2.8960   -2.5310 hc        1 MOL      0.023137
     34 H14        -5.1510   -3.9130   -0.5460 hc        1 MOL     -0.022734
     35 H15        -4.1770   -5.3190   -0.7810 hc        1 MOL     -0.022734
     36 H16        -5.1880   -5.8830   -2.8380 hx        1 MOL      0.076246
     37 H17        -6.1050   -4.3600   -2.7870 hx        1 MOL      0.076246
     38 H18        -7.2840   -6.3960   -2.0240 hn        1 MOL      0.306753
     39 H19        -6.3690   -6.5300   -0.7810 hn        1 MOL      0.306753
     40 H20        -7.3150   -5.1720   -0.9040 hn        1 MOL      0.306753
     41 N4          0.8150   -3.9560   -1.2150 n         1 MOL     -0.264557
     42 C13         1.9640   -4.7540   -1.7100 c3        1 MOL      0.215039
     43 C14         3.0730   -4.9730   -0.6390 c         1 MOL      0.222961
     44 O6          4.0180   -5.7140   -0.8960 o         1 MOL     -0.457712
     45 C15         2.5280   -3.9890   -2.9550 c3        1 MOL     -0.426423
     46 C16         2.7690   -2.4690   -2.8690 c         1 MOL      0.803404
     47 O7          2.9400   -1.9390   -1.7440 o         1 MOL     -0.718887
     48 O8          2.9840   -1.7930   -3.8940 o         1 MOL     -0.718887
     49 H21         1.0510   -3.1740   -0.6350 hn        1 MOL      0.093575
     50 H22         1.7550   -5.7630   -2.0530 h1        1 MOL      0.080377
     51 H23         1.7590   -4.2050   -3.7010 hc        1 MOL      0.119063
     52 H24         3.4440   -4.5170   -3.2680 hc        1 MOL      0.119063
     53 N5          3.0430   -4.2160    0.4990 n         1 MOL      0.044996
     54 C17         4.0720   -4.0840    1.6190 c3        1 MOL     -0.242264
     55 C18         5.2700   -3.2390    1.1950 c         1 MOL      0.507713
     56 O9          6.1870   -3.0580    2.0000 o         1 MOL     -0.572382
     57 H25         2.2700   -3.5880    0.6240 hn        1 MOL     -0.095018
     58 H26         4.3680   -5.0990    1.8790 h1        1 MOL      0.125270
     59 H27         3.5740   -3.6870    2.4990 h1        1 MOL      0.125270
     60 N6          5.2950   -2.5400    0.0480 n         1 MOL     -0.068180
     61 C19         6.3820   -1.7270   -0.5770 c3        1 MOL     -0.090777
     62 C20         6.0680   -0.1850   -0.7510 c         1 MOL      0.618032
     63 O10         4.9170    0.2610   -0.5970 o         1 MOL     -0.600546
     64 C21         6.4880   -2.2550   -1.9560 c3        1 MOL     -0.154577
     65 C22         6.9510   -3.6990   -2.0330 c         1 MOL      0.513475
     66 N7          7.8180   -4.1820   -1.1270 n         1 MOL     -0.736293
     67 O11         6.5150   -4.5210   -2.9030 o         1 MOL     -0.515063
     68 H28         4.4090   -2.6120   -0.4420 hn        1 MOL      0.253860
     69 H29         7.2910   -1.8480    0.0140 h1        1 MOL      0.039381
     70 H30         7.2330   -1.6410   -2.4670 hc        1 MOL      0.055123
     71 H31         5.5190   -2.2020   -2.4420 hc        1 MOL      0.055123
     72 H32         8.2910   -3.5650   -0.4790 hn        1 MOL      0.362699
     73 H33         8.1690   -5.0810   -1.4220 hn        1 MOL      0.362699
     74 N8          7.0110    0.6430   -1.1340 n         1 MOL     -0.354894
     75 C23         6.8540    2.0790   -1.3780 c3        1 MOL     -0.159836
     76 C24         6.3320    2.9350   -0.2220 c         1 MOL      0.523460
     77 O12         6.6580    2.6070    0.9890 o         1 MOL     -0.479639
     78 H34         7.9480    0.3080   -1.2810 hn        1 MOL      0.305831
     79 H35         6.1320    2.1760   -2.1850 h1        1 MOL      0.096587
     80 H36         7.8350    2.5080   -1.6190 h1        1 MOL      0.096587
     81 N9          5.3630    3.8250   -0.5100 n         1 MOL     -0.453821
     82 C25         4.4470    4.4960    0.3850 c3        1 MOL      0.068828
     83 C26         3.3810    3.5600    0.9940 c         1 MOL      0.311881
     84 O13         3.4350    2.3440    0.7210 o         1 MOL     -0.334955
     85 C27         3.7010    5.7440   -0.1500 c3        1 MOL     -0.244248
     86 C28         2.7560    5.5730   -1.3020 ca        1 MOL      0.178532
     87 C29         3.2960    5.6570   -2.5590 ca        1 MOL     -0.241383
     88 C30         1.3290    5.4130   -1.0350 ca        1 MOL     -0.241383
     89 C31         2.4430    5.6600   -3.6630 ca        1 MOL     -0.237272
     90 C32         0.4790    5.3320   -2.1540 ca        1 MOL     -0.237272
     91 C33         1.0220    5.5030   -3.4480 ca        1 MOL      0.317585
     92 O14         0.2040    5.7020   -4.5440 oh        1 MOL     -0.521836
     93 H37         5.1480    3.9340   -1.4930 hn        1 MOL      0.279027
     94 H38         5.0900    4.8380    1.2060 h1        1 MOL      0.115390
     95 H39         4.4060    6.5150   -0.4930 hc        1 MOL      0.076896
     96 H40         3.1270    6.1460    0.6900 hc        1 MOL      0.076896
     97 H41         4.3040    6.0390   -2.6150 ha        1 MOL      0.161970
     98 H42         0.9310    5.3780   -0.0400 ha        1 MOL      0.161970
     99 H43         2.8710    5.7780   -4.6410 ha        1 MOL      0.182790
    100 H44        -0.5910    5.2700   -2.0050 ha        1 MOL      0.182790
    101 H45        -0.7290    5.8190   -4.3400 ho        1 MOL      0.403343
    102 N10         2.5750    4.1240    1.9750 n         1 MOL     -0.519417
    103 C34         1.7330    3.3620    2.9090 c3        1 MOL      0.020997
    104 C35         0.7170    2.3680    2.2750 c         1 MOL      0.317283
    105 O15         1.0910    1.3940    1.6050 o         1 MOL     -0.448640
    106 C36         2.5300    2.5300    3.9810 c3        1 MOL      0.446803
    107 C37         1.6510    2.2530    5.1920 c3        1 MOL     -0.168232
    108 C38         3.9000    3.2290    4.2880 c3        1 MOL     -0.012364
    109 C39         2.3370    1.8010    6.4920 c3        1 MOL     -0.058720
    110 H46         2.5290    5.1370    2.0480 hn        1 MOL      0.342574
    111 H47         1.2870    4.1560    3.4940 h1        1 MOL      0.048084
    112 H48         2.8730    1.5840    3.5650 hc        1 MOL     -0.041531
    113 H49         1.0080    1.4150    4.9260 hc        1 MOL      0.020177
    114 H50         1.1200    3.1790    5.4130 hc        1 MOL      0.020177
    115 H51         4.4850    3.4570    3.3900 hc        1 MOL     -0.020615
    116 H52         3.6460    4.1920    4.7290 hc        1 MOL     -0.020615
    117 H53         4.4460    2.6320    5.0170 hc        1 MOL     -0.020615
    118 H54         1.5640    1.7850    7.2620 hc        1 MOL      0.025992
    119 H55         2.6300    0.7550    6.3750 hc        1 MOL      0.025992
    120 H56         3.0890    2.4920    6.8680 hc        1 MOL      0.025992
    121 N11        -0.5550    2.4650    2.5750 n         1 MOL     -0.329937
    122 C40        -1.5610    1.4370    2.2760 c3        1 MOL      0.029291
    123 C41        -2.3810    1.7560    0.9750 c         1 MOL      0.522468
    124 O16        -2.9180    0.7960    0.3660 o         1 MOL     -0.538696
    125 C42        -2.3970    1.3010    3.5850 c3        1 MOL      0.159346
    126 O17        -2.7420    2.5560    4.1370 oh        1 MOL     -0.621666
    127 H57        -0.8160    3.2350    3.1820 hn        1 MOL      0.213217
    128 H58        -1.1110    0.4570    2.1000 h1        1 MOL      0.071989
    129 H59        -1.7960    0.7460    4.3010 h1        1 MOL      0.071449
    130 H60        -3.3340    0.8020    3.3840 h1        1 MOL      0.071449
    131 H61        -3.6140    2.8210    3.8490 ho        1 MOL      0.418056
    132 N12        -2.6540    3.0630    0.6720 n         1 MOL     -0.493208
    133 C43        -3.3040    3.3900   -0.5840 c3        1 MOL      0.009538
    134 C44        -2.6510    2.7450   -1.8450 c         1 MOL      0.782539
    135 O18        -1.4810    3.0140   -2.1550 o         1 MOL     -0.627941
    136 C45        -3.2360    4.8810   -0.6780 c3        1 MOL     -0.448497
    137 H62        -2.3000    3.7980    1.2770 hn        1 MOL      0.330693
    138 H63        -4.2990    2.9580   -0.4910 h1        1 MOL      0.160579
    139 H64        -3.6290    5.3420   -1.5840 hc        1 MOL      0.132559
    140 H65        -3.8640    5.1950    0.1470 hc        1 MOL      0.132559
    141 H66        -2.3080    5.3580   -0.3640 hc        1 MOL      0.132559
    142 N13        -3.4340    2.0980   -2.7030 n         1 MOL     -0.722118
    143 C46        -4.6490    1.3570   -2.4160 c3        1 MOL      0.394476
    144 C47        -6.0430    2.1700   -2.4780 c         1 MOL      0.559046
    145 O19        -6.1200    3.0720   -3.2970 o         1 MOL     -0.556951
    146 C48        -4.8410    0.1590   -3.3550 c3        1 MOL     -0.341365
    147 H67        -3.0920    1.9580   -3.6440 hn        1 MOL      0.375582
    148 H68        -4.4800    0.9300   -1.4250 h1        1 MOL     -0.008122
    149 H69        -3.9460   -0.4460   -3.4400 hc        1 MOL      0.092381
    150 H70        -5.7810   -0.3210   -3.0980 hc        1 MOL      0.092381
    151 H71        -5.0320    0.5910   -4.3420 hc        1 MOL      0.092381
    152 N14        -7.1230    1.8640   -1.7280 n         1 MOL     -0.575976
    153 C49        -7.1770    1.0100   -0.5480 c3        1 MOL     -0.384437
    154 C50        -7.7880    1.8330    0.5580 c         1 MOL      0.616456
    155 O20        -7.2690    1.8230    1.6430 o         1 MOL     -0.531631
    156 C51        -7.9920   -0.2570   -0.8440 c3        1 MOL      0.383027
    157 C52        -7.8910   -1.2950    0.2730 c3        1 MOL     -0.476051
    158 C53        -8.7500   -2.5510   -0.0490 c         1 MOL      0.776099
    159 O21        -8.2580   -3.6980    0.0850 o         1 MOL     -0.717341
    160 O22        -9.8510   -2.4330   -0.6040 o         1 MOL     -0.717341
    161 H72        -8.0250    2.2320   -1.9960 hn        1 MOL      0.345604
    162 H73        -6.1950    0.6320   -0.2620 h1        1 MOL      0.184944
    163 H74        -7.6730   -0.7200   -1.7820 hc        1 MOL     -0.033758
    164 H75        -9.0200    0.0730   -1.0040 hc        1 MOL     -0.033758
    165 H76        -8.2990   -0.8730    1.1900 hc        1 MOL      0.107477
    166 H77        -6.8530   -1.5670    0.4800 hc        1 MOL      0.107477
    167 N15        -8.7410    2.7520    0.3350 n         1 MOL     -0.359227
    168 C54        -9.1020    3.8110    1.3100 c3        1 MOL     -0.102328
    169 H78       -10.1790    3.7970    1.4790 h1        1 MOL      0.082886
    170 H79        -8.5850    3.6300    2.2520 h1        1 MOL      0.082886
    171 H80        -8.8090    4.7840    0.9150 h1        1 MOL      0.082886
    172 H81        -9.1660    2.7010   -0.5850 hn        1 MOL      0.267102
    173 Ca1         2.3480    0.2390   -0.5280 Ca        1 MOL      1.722134
    174 O23         0.9260    2.4700   -1.1470 oh        1 MOL     -0.863651
    175 H82         0.0270    2.5120   -1.4670 ho        1 MOL      0.428669
    176 H83         1.3250    3.2850   -1.4550 ho        1 MOL      0.428669
    177 O24         3.0570    1.0420   -2.9710 oh        1 MOL     -0.863651
    178 H84         3.8920    0.8930   -3.4240 ho        1 MOL      0.428669
    179 H85         2.4050    1.0040   -3.6710 ho        1 MOL      0.428669
    180 O25         0.2090   -0.5780   -1.7130 oh        1 MOL     -0.863651
    181 H86        -0.4100   -0.9330   -1.0710 ho        1 MOL      0.428669
    182 H87        -0.1750   -0.7760   -2.5600 ho        1 MOL      0.428669
@<TRIPOS>BOND
     1    1    2 1   
     2    1    4 1   
     3    1    5 1   
     4    1    6 1   
     5    2    3 2   
     6    2    7 1   
     7    7    8 1   
     8    7   15 1   
     9    8    9 1   
    10    8   11 1   
    11    8   16 1   
    12    9   10 2   
    13    9   19 1   
    14   11   12 1   
    15   11   17 1   
    16   11   18 1   
    17   12   13 1   
    18   12   14 1   
    19   19   20 1   
    20   19   28 1   
    21   20   21 1   
    22   20   23 1   
    23   20   29 1   
    24   21   22 2   
    25   21   41 1   
    26   23   24 1   
    27   23   30 1   
    28   23   31 1   
    29   24   25 1   
    30   24   32 1   
    31   24   33 1   
    32   25   26 1   
    33   25   34 1   
    34   25   35 1   
    35   26   27 1   
    36   26   36 1   
    37   26   37 1   
    38   27   38 1   
    39   27   39 1   
    40   27   40 1   
    41   41   42 1   
    42   41   49 1   
    43   42   43 1   
    44   42   45 1   
    45   42   50 1   
    46   43   44 2   
    47   43   53 1   
    48   45   46 1   
    49   45   51 1   
    50   45   52 1   
    51   46   47 1   
    52   46   48 1   
    53   53   54 1   
    54   53   57 1   
    55   54   55 1   
    56   54   58 1   
    57   54   59 1   
    58   55   56 2   
    59   55   60 1   
    60   60   61 1   
    61   60   68 1   
    62   61   62 1   
    63   61   64 1   
    64   61   69 1   
    65   62   63 2   
    66   62   74 1   
    67   64   65 1   
    68   64   70 1   
    69   64   71 1   
    70   65   66 1   
    71   65   67 2   
    72   66   72 1   
    73   66   73 1   
    74   74   75 1   
    75   74   78 1   
    76   75   76 1   
    77   75   79 1   
    78   75   80 1   
    79   76   77 2   
    80   76   81 1   
    81   81   82 1   
    82   81   93 1   
    83   82   83 1   
    84   82   85 1   
    85   82   94 1   
    86   83   84 2   
    87   83  102 1   
    88   85   86 1   
    89   85   95 1   
    90   85   96 1   
    91   86   87 ar  
    92   86   88 ar  
    93   87   89 ar  
    94   87   97 1   
    95   88   90 ar  
    96   88   98 1   
    97   89   91 ar  
    98   89   99 1   
    99   90   91 ar  
   100   90  100 1   
   101   91   92 1   
   102   92  101 1   
   103  102  103 1   
   104  102  110 1   
   105  103  104 1   
   106  103  106 1   
   107  103  111 1   
   108  104  105 2   
   109  104  121 1   
   110  106  107 1   
   111  106  108 1   
   112  106  112 1   
   113  107  109 1   
   114  107  113 1   
   115  107  114 1   
   116  108  115 1   
   117  108  116 1   
   118  108  117 1   
   119  109  118 1   
   120  109  119 1   
   121  109  120 1   
   122  121  122 1   
   123  121  127 1   
   124  122  123 1   
   125  122  125 1   
   126  122  128 1   
   127  123  124 2   
   128  123  132 1   
   129  125  126 1   
   130  125  129 1   
   131  125  130 1   
   132  126  131 1   
   133  132  133 1   
   134  132  137 1   
   135  133  134 1   
   136  133  136 1   
   137  133  138 1   
   138  134  135 2   
   139  134  142 1   
   140  136  139 1   
   141  136  140 1   
   142  136  141 1   
   143  142  143 1   
   144  142  147 1   
   145  143  144 1   
   146  143  146 1   
   147  143  148 1   
   148  144  145 2   
   149  144  152 1   
   150  146  149 1   
   151  146  150 1   
   152  146  151 1   
   153  152  153 1   
   154  152  161 1   
   155  153  154 1   
   156  153  156 1   
   157  153  162 1   
   158  154  155 2   
   159  154  167 1   
   160  156  157 1   
   161  156  163 1   
   162  156  164 1   
   163  157  158 1   
   164  157  165 1   
   165  157  166 1   
   166  158  159 1   
   167  158  160 1   
   168  167  168 1   
   169  167  172 1   
   170  168  169 1   
   171  168  170 1   
   172  168  171 1   
   173  174  175 1   
   174  174  176 1   
   175  177  178 1   
   176  177  179 1   
   177  180  181 1   
   178  180  182 1   
@<TRIPOS>SUBSTRUCTURE
     1 MOL         1 TEMP              0 ****  ****    0 ROOT
