@<TRIPOS>MOLECULE
MOL
  185   180     1     0     0
SMALL
resp


@<TRIPOS>ATOM
      1 C1         -5.5810    1.3490   -3.5700 c3        1 MOL     -0.367200
      2 C2         -6.2590    1.2910   -2.2110 c         1 MOL      0.541919
      3 O1         -5.6120    1.1020   -1.1700 o         1 MOL     -0.419682
      4 H1         -4.7970    0.5940   -3.6170 hc        1 MOL      0.102385
      5 H2         -6.3150    1.1590   -4.3520 hc        1 MOL      0.102385
      6 H3         -5.1410    2.3360   -3.7150 hc        1 MOL      0.102385
      7 N1         -7.5650    1.3980   -2.2170 n         1 MOL     -0.469113
      8 C3         -8.5190    1.4460   -1.0700 c3        1 MOL      0.033415
      9 C4         -8.2700    0.4290    0.0310 c         1 MOL      0.470371
     10 O2         -8.3200    0.7700    1.2540 o         1 MOL     -0.477344
     11 C5         -8.5690    2.9570   -0.4960 c3        1 MOL     -0.235791
     12 C6         -8.5750    4.1860   -1.4310 c         1 MOL      0.791873
     13 O3         -7.8300    5.1350   -1.1370 o         1 MOL     -0.711078
     14 O4         -9.3590    4.2130   -2.4220 o         1 MOL     -0.711078
     15 H4         -7.9890    1.5490   -3.1170 hn        1 MOL      0.314787
     16 H5         -9.4880    1.2340   -1.5410 h1        1 MOL      0.055581
     17 H6         -7.7330    3.0710    0.2020 hc        1 MOL      0.064945
     18 H7         -9.4240    3.0940    0.1600 hc        1 MOL      0.064945
     19 N2         -8.0220   -0.8190   -0.4920 n         1 MOL     -0.521415
     20 C7         -7.7950   -2.0860    0.3780 c3        1 MOL      0.292962
     21 C8         -6.3660   -2.6480    0.2780 c         1 MOL      0.544849
     22 O5         -6.2010   -3.8900    0.1840 o         1 MOL     -0.578353
     23 C9         -8.8370   -3.1230    0.1160 c3        1 MOL     -0.199860
     24 C10       -10.3820   -2.7780    0.3600 c3        1 MOL     -0.026670
     25 C11       -11.2030   -3.9950    0.0190 c3        1 MOL      0.010675
     26 C12       -12.6740   -3.7080   -0.1290 c3        1 MOL     -0.078858
     27 N3        -13.3690   -3.1800    1.0260 n4        1 MOL     -0.324581
     28 H8         -8.1140   -0.9400   -1.4830 hn        1 MOL      0.264130
     29 H9         -8.0610   -1.6880    1.3550 h1        1 MOL      0.004774
     30 H10        -8.6140   -3.9600    0.7800 hc        1 MOL      0.068849
     31 H11        -8.7400   -3.4830   -0.9100 hc        1 MOL      0.068849
     32 H12       -10.6540   -1.9340   -0.2810 hc        1 MOL      0.028534
     33 H13       -10.6790   -2.3940    1.3360 hc        1 MOL      0.028534
     34 H14       -10.9950   -4.8380    0.6830 hc        1 MOL      0.051985
     35 H15       -10.8200   -4.3880   -0.9320 hc        1 MOL      0.051985
     36 H16       -13.0650   -4.6880   -0.4190 hx        1 MOL      0.103869
     37 H17       -12.7340   -2.9350   -0.8950 hx        1 MOL      0.103869
     38 H18       -14.2610   -2.8080    0.7120 hn        1 MOL      0.314947
     39 H19       -13.4660   -3.8940    1.7240 hn        1 MOL      0.314947
     40 H20       -12.9610   -2.3620    1.4710 hn        1 MOL      0.314947
     41 N4         -5.3850   -1.7820    0.2110 n         1 MOL     -0.509410
     42 C13        -3.9900   -2.1330    0.0190 c3        1 MOL      0.010623
     43 C14        -3.3910   -2.6580    1.3470 c         1 MOL      0.526623
     44 O6         -3.6000   -1.9950    2.4350 o         1 MOL     -0.531302
     45 C15        -3.1840   -0.8450   -0.3430 c3        1 MOL     -0.106215
     46 C16        -1.7370   -1.2260   -0.5390 c         1 MOL      0.399748
     47 O7         -0.9350   -1.0790    0.4130 o         1 MOL     -0.642263
     48 O8         -1.2710   -1.6430   -1.6280 o         1 MOL     -0.642263
     49 H21        -5.6160   -0.7990    0.2650 hn        1 MOL      0.293170
     50 H22        -3.9380   -2.9310   -0.7240 h1        1 MOL      0.096857
     51 H23        -3.2430   -0.1350    0.4840 hc        1 MOL      0.112091
     52 H24        -3.6150   -0.4640   -1.2690 hc        1 MOL      0.112091
     53 N5         -2.6410   -3.7090    1.2470 n         1 MOL     -0.298799
     54 C17        -2.0170   -4.3370    2.4290 c3        1 MOL     -0.069923
     55 C18        -1.0470   -3.6120    3.3080 c         1 MOL      0.510338
     56 O9         -0.7890   -4.1390    4.4010 o         1 MOL     -0.568187
     57 H25        -2.4820   -4.1130    0.3360 hn        1 MOL      0.285116
     58 H26        -1.3790   -5.1220    2.0240 h1        1 MOL      0.074679
     59 H27        -2.7820   -4.8000    3.0590 h1        1 MOL      0.074679
     60 N6         -0.5580   -2.4370    2.9620 n         1 MOL     -0.115063
     61 C19         0.2430   -1.6160    3.8390 c3        1 MOL      0.067566
     62 C20        -0.1090   -0.1110    3.7220 c         1 MOL      0.420166
     63 O10         0.7610    0.7830    3.8090 o         1 MOL     -0.514561
     64 C21         1.7290   -1.9130    3.8500 c3        1 MOL     -0.446253
     65 C22         2.5130   -1.2660    2.6490 c         1 MOL      0.795729
     66 N7          3.7140   -0.8750    2.7990 n         1 MOL     -0.704334
     67 O11         2.0060   -1.3160    1.5660 o         1 MOL     -0.727489
     68 H28        -0.8270   -2.0790    2.0510 hn        1 MOL     -0.022148
     69 H29        -0.2590   -1.9030    4.7660 h1        1 MOL      0.076538
     70 H30         2.0200   -2.9600    3.8020 hc        1 MOL      0.136565
     71 H31         2.1190   -1.4650    4.7620 hc        1 MOL      0.136565
     72 H32         4.1390   -0.9860    3.7110 hn        1 MOL      0.325344
     73 H33         4.1960   -0.4930    1.9970 hn        1 MOL      0.325344
     74 N8         -1.3780    0.1450    3.3680 n         1 MOL     -0.236251
     75 C23        -2.1100    1.4540    3.2020 c3        1 MOL     -0.213670
     76 C24        -1.4750    2.5360    2.2610 c         1 MOL      0.552528
     77 O12        -1.3680    3.7240    2.5710 o         1 MOL     -0.533461
     78 H34        -1.9970   -0.6420    3.4640 hn        1 MOL      0.219428
     79 H35        -2.0970    1.9520    4.1690 h1        1 MOL      0.115915
     80 H36        -3.1500    1.2760    2.9490 h1        1 MOL      0.115915
     81 N9         -0.9440    1.9330    1.1660 n         1 MOL     -0.327562
     82 C25        -0.3130    2.6630    0.0470 c3        1 MOL      0.119821
     83 C26         1.0740    2.1070   -0.2290 c         1 MOL      0.231969
     84 O13         1.2440    0.9040   -0.2120 o         1 MOL     -0.356347
     85 C27        -1.1480    2.5700   -1.2820 c3        1 MOL     -0.094965
     86 C28        -2.2370    3.6260   -1.3880 ca        1 MOL      0.057025
     87 C29        -2.0610    4.7650   -2.1860 ca        1 MOL     -0.192102
     88 C30        -3.4910    3.4270   -0.7710 ca        1 MOL     -0.192102
     89 C31        -3.1170    5.6940   -2.3050 ca        1 MOL     -0.229022
     90 C32        -4.5080    4.3630   -0.8410 ca        1 MOL     -0.229022
     91 C33        -4.3550    5.4940   -1.6180 ca        1 MOL      0.387928
     92 O14        -5.3530    6.3930   -1.7630 oh        1 MOL     -0.555940
     93 H37        -1.0780    0.9520    0.9910 hn        1 MOL      0.336617
     94 H38        -0.2330    3.7340    0.2460 h1        1 MOL      0.049788
     95 H39        -1.6020    1.5740   -1.2740 hc        1 MOL      0.021879
     96 H40        -0.4740    2.6520   -2.1400 hc        1 MOL      0.021879
     97 H41        -1.1500    4.8940   -2.7460 ha        1 MOL      0.106865
     98 H42        -3.6970    2.5240   -0.2260 ha        1 MOL      0.106865
     99 H43        -2.9880    6.5580   -2.9310 ha        1 MOL      0.127375
    100 H44        -5.4440    4.1240   -0.3630 ha        1 MOL      0.127375
    101 H45        -6.1340    6.0360   -1.3350 ho        1 MOL      0.433186
    102 N10         2.0910    3.0080   -0.3080 n         1 MOL     -0.321554
    103 C34         3.4880    2.6120   -0.5750 c3        1 MOL      0.305956
    104 C35         4.2230    2.1290    0.6830 c         1 MOL      0.169970
    105 O15         4.8030    1.0390    0.6890 o         1 MOL     -0.116785
    106 C36         4.2390    3.7370   -1.3580 c3        1 MOL      0.008048
    107 C37         3.5580    4.0080   -2.7520 c3        1 MOL     -0.002844
    108 C38         5.7030    3.3040   -1.5870 c3        1 MOL     -0.166353
    109 C39         3.3600    2.7770   -3.6910 c3        1 MOL     -0.158644
    110 H46         1.8220    3.9750   -0.2190 hn        1 MOL      0.250146
    111 H47         3.4420    1.7320   -1.2250 h1        1 MOL     -0.049282
    112 H48         4.1620    4.6710   -0.7990 hc        1 MOL     -0.013362
    113 H49         4.2070    4.7630   -3.2010 hc        1 MOL      0.017967
    114 H50         2.5630    4.4180   -2.6060 hc        1 MOL      0.017967
    115 H51         6.2080    3.7770   -2.4310 hc        1 MOL      0.058667
    116 H52         6.3420    3.5660   -0.7420 hc        1 MOL      0.058667
    117 H53         5.5380    2.2380   -1.7700 hc        1 MOL      0.058667
    118 H54         2.4070    2.3690   -3.3360 hc        1 MOL      0.048647
    119 H55         3.3550    3.0740   -4.7340 hc        1 MOL      0.048647
    120 H56         4.1960    2.0870   -3.5780 hc        1 MOL      0.048647
    121 N11         4.2490    2.8880    1.7760 n         1 MOL     -0.263858
    122 C40         5.0770    2.6350    2.9920 c3        1 MOL     -0.053466
    123 C41         6.5890    2.3090    2.7300 c         1 MOL      0.197052
    124 O16         7.1450    1.4600    3.4710 o         1 MOL     -0.395102
    125 C42         5.0810    3.8790    3.8860 c3        1 MOL      0.395362
    126 O17         3.8860    4.5290    4.1820 oh        1 MOL     -0.629600
    127 H57         3.7360    3.7650    1.8110 hn        1 MOL      0.213723
    128 H58         4.6680    1.7390    3.4570 h1        1 MOL      0.053591
    129 H59         5.8010    4.5860    3.4670 h1        1 MOL      0.000382
    130 H60         5.4810    3.6220    4.8680 h1        1 MOL      0.000382
    131 H61         3.3250    3.9180    4.6570 ho        1 MOL      0.416585
    132 N12         7.1830    2.9070    1.6840 n         1 MOL     -0.255540
    133 C43         8.4400    2.4910    1.0690 c3        1 MOL      0.291047
    134 C44         8.4920    0.9830    1.0860 c         1 MOL      0.455463
    135 O18         9.2700    0.3910    1.7920 o         1 MOL     -0.468228
    136 C45         9.6260    3.2440    1.6400 c3        1 MOL     -0.466087
    137 H62         6.6560    3.6320    1.1990 hn        1 MOL      0.215895
    138 H63         8.2910    2.8540    0.0640 h1        1 MOL      0.013205
    139 H64         9.5720    3.2620    2.7240 hc        1 MOL      0.131010
    140 H65        10.4820    2.6780    1.2810 hc        1 MOL      0.131010
    141 H66         9.5240    4.2470    1.2250 hc        1 MOL      0.131010
    142 N13         7.5340    0.2800    0.3800 n         1 MOL     -0.458276
    143 C46         7.5170   -1.1770    0.2330 c3        1 MOL      0.236571
    144 C47         7.0840   -1.6720   -1.1670 c         1 MOL      0.570838
    145 O19         6.5250   -1.0110   -1.9770 o         1 MOL     -0.468557
    146 C48         6.5590   -1.7960    1.2840 c3        1 MOL     -0.170396
    147 H67         6.7250    0.7540    0.0100 hn        1 MOL     -0.007971
    148 H68         8.5250   -1.5600    0.4220 h1        1 MOL      0.017882
    149 H69         5.5180   -1.8530    0.9510 hc        1 MOL      0.055426
    150 H70         6.9320   -2.7630    1.6190 hc        1 MOL      0.055426
    151 H71         6.6240   -1.1680    2.1780 hc        1 MOL      0.055426
    152 N14         7.2910   -2.9590   -1.4220 n         1 MOL     -0.625783
    153 C49         7.0400   -3.7010   -2.6440 c3        1 MOL     -0.080508
    154 C50         7.7010   -3.1280   -3.8850 c         1 MOL      0.471985
    155 O20         7.3930   -3.5090   -5.0270 o         1 MOL     -0.481403
    156 C51         5.4980   -4.0370   -2.7740 c3        1 MOL      0.121659
    157 C52         4.8980   -4.9040   -1.4780 c3        1 MOL     -0.079657
    158 C53         3.4860   -4.5250   -1.1130 c         1 MOL      0.608084
    159 O21         2.5750   -5.2030   -1.6540 o         1 MOL     -0.689443
    160 O22         3.1820   -3.5260   -0.4440 o         1 MOL     -0.689443
    161 H72         7.8080   -3.5150   -0.7560 hn        1 MOL      0.325625
    162 H73         7.5390   -4.6690   -2.5600 h1        1 MOL      0.124913
    163 H74         5.5040   -4.6370   -3.6740 hc        1 MOL      0.003723
    164 H75         4.8190   -3.2000   -2.9320 hc        1 MOL      0.003723
    165 H76         5.4700   -4.6650   -0.5840 hc        1 MOL      0.012779
    166 H77         5.0500   -5.9740   -1.6390 hc        1 MOL      0.012779
    167 N15         8.7730   -2.2800   -3.7430 n         1 MOL     -0.322660
    168 C54         9.2580   -1.3690   -4.7270 c3        1 MOL     -0.172031
    169 H78         9.6430   -1.9280   -5.5790 h1        1 MOL      0.096555
    170 H79         8.4440   -0.7220   -5.0550 h1        1 MOL      0.096555
    171 H80        10.0560   -0.7630   -4.3000 h1        1 MOL      0.096555
    172 H81         9.0000   -2.0500   -2.7860 hn        1 MOL      0.239432
    173 Ca1         1.2220   -1.8460   -0.8530 Ca        1 MOL      1.796864
    174 O23         3.7530   -0.7550   -1.1420 oh        1 MOL     -0.844433
    175 H82         4.4460   -0.8700   -1.8000 ho        1 MOL      0.412231
    176 H83         4.1570   -0.2260   -0.4560 ho        1 MOL      0.412231
    177 O24         1.1170   -3.0090   -3.2150 oh        1 MOL     -0.844433
    178 H84         0.7320   -2.5720   -3.9800 ho        1 MOL      0.412231
    179 H85         1.5760   -3.7610   -3.5850 ho        1 MOL      0.412231
    180 O25         0.4540   -4.4640   -0.0650 oh        1 MOL     -0.844433
    181 H86         1.1440   -4.9350   -0.5310 ho        1 MOL      0.412231
    182 H87         0.4920   -4.7840    0.8330 ho        1 MOL      0.412231
    183 O26         1.0270   -0.0480   -3.1480 oh        1 MOL     -0.844433
    184 H88         1.3290    0.8330   -3.3420 ho        1 MOL      0.412231
    185 H89         0.2720   -0.1790   -3.7290 ho        1 MOL      0.412231
@<TRIPOS>BOND
     1    1    2 1   
     2    1    4 1   
     3    1    5 1   
     4    1    6 1   
     5    2    3 2   
     6    2    7 1   
     7    7    8 1   
     8    7   15 1   
     9    8    9 1   
    10    8   11 1   
    11    8   16 1   
    12    9   10 2   
    13    9   19 1   
    14   11   12 1   
    15   11   17 1   
    16   11   18 1   
    17   12   13 1   
    18   12   14 1   
    19   19   20 1   
    20   19   28 1   
    21   20   21 1   
    22   20   23 1   
    23   20   29 1   
    24   21   22 2   
    25   21   41 1   
    26   23   24 1   
    27   23   30 1   
    28   23   31 1   
    29   24   25 1   
    30   24   32 1   
    31   24   33 1   
    32   25   26 1   
    33   25   34 1   
    34   25   35 1   
    35   26   27 1   
    36   26   36 1   
    37   26   37 1   
    38   27   38 1   
    39   27   39 1   
    40   27   40 1   
    41   41   42 1   
    42   41   49 1   
    43   42   43 1   
    44   42   45 1   
    45   42   50 1   
    46   43   44 2   
    47   43   53 1   
    48   45   46 1   
    49   45   51 1   
    50   45   52 1   
    51   46   47 1   
    52   46   48 1   
    53   53   54 1   
    54   53   57 1   
    55   54   55 1   
    56   54   58 1   
    57   54   59 1   
    58   55   56 2   
    59   55   60 1   
    60   60   61 1   
    61   60   68 1   
    62   61   62 1   
    63   61   64 1   
    64   61   69 1   
    65   62   63 2   
    66   62   74 1   
    67   64   65 1   
    68   64   70 1   
    69   64   71 1   
    70   65   66 1   
    71   65   67 2   
    72   66   72 1   
    73   66   73 1   
    74   74   75 1   
    75   74   78 1   
    76   75   76 1   
    77   75   79 1   
    78   75   80 1   
    79   76   77 2   
    80   76   81 1   
    81   81   82 1   
    82   81   93 1   
    83   82   83 1   
    84   82   85 1   
    85   82   94 1   
    86   83   84 2   
    87   83  102 1   
    88   85   86 1   
    89   85   95 1   
    90   85   96 1   
    91   86   87 ar  
    92   86   88 ar  
    93   87   89 ar  
    94   87   97 1   
    95   88   90 ar  
    96   88   98 1   
    97   89   91 ar  
    98   89   99 1   
    99   90   91 ar  
   100   90  100 1   
   101   91   92 1   
   102   92  101 1   
   103  102  103 1   
   104  102  110 1   
   105  103  104 1   
   106  103  106 1   
   107  103  111 1   
   108  104  105 2   
   109  104  121 1   
   110  106  107 1   
   111  106  108 1   
   112  106  112 1   
   113  107  109 1   
   114  107  113 1   
   115  107  114 1   
   116  108  115 1   
   117  108  116 1   
   118  108  117 1   
   119  109  118 1   
   120  109  119 1   
   121  109  120 1   
   122  121  122 1   
   123  121  127 1   
   124  122  123 1   
   125  122  125 1   
   126  122  128 1   
   127  123  124 2   
   128  123  132 1   
   129  125  126 1   
   130  125  129 1   
   131  125  130 1   
   132  126  131 1   
   133  132  133 1   
   134  132  137 1   
   135  133  134 1   
   136  133  136 1   
   137  133  138 1   
   138  134  135 2   
   139  134  142 1   
   140  136  139 1   
   141  136  140 1   
   142  136  141 1   
   143  142  143 1   
   144  142  147 1   
   145  143  144 1   
   146  143  146 1   
   147  143  148 1   
   148  144  145 2   
   149  144  152 1   
   150  146  149 1   
   151  146  150 1   
   152  146  151 1   
   153  152  153 1   
   154  152  161 1   
   155  153  154 1   
   156  153  156 1   
   157  153  162 1   
   158  154  155 2   
   159  154  167 1   
   160  156  157 1   
   161  156  163 1   
   162  156  164 1   
   163  157  158 1   
   164  157  165 1   
   165  157  166 1   
   166  158  159 1   
   167  158  160 1   
   168  167  168 1   
   169  167  172 1   
   170  168  169 1   
   171  168  170 1   
   172  168  171 1   
   173  174  175 1   
   174  174  176 1   
   175  177  178 1   
   176  177  179 1   
   177  180  181 1   
   178  180  182 1   
   179  183  184 1   
   180  183  185 1   
@<TRIPOS>SUBSTRUCTURE
     1 MOL         1 TEMP              0 ****  ****    0 ROOT
