@<TRIPOS>MOLECULE
MOL
  188   182     1     0     0
SMALL
resp


@<TRIPOS>ATOM
      1 C1          6.9620   -0.3900    4.7250 c3        1 MOL     -0.467591
      2 C2          6.4280    0.1110    3.3740 c         1 MOL      0.814466
      3 O1          6.0020   -0.7300    2.5570 o         1 MOL     -0.658003
      4 H1          6.9770   -1.4800    4.7270 hc        1 MOL      0.119970
      5 H2          7.9730   -0.0120    4.8790 hc        1 MOL      0.119970
      6 H3          6.3150   -0.0350    5.5270 hc        1 MOL      0.119970
      7 N1          6.4790    1.4060    3.0870 n         1 MOL     -0.636952
      8 C3          5.8050    2.0170    1.9950 c3        1 MOL      0.117285
      9 C4          6.2450    1.6580    0.4900 c         1 MOL      0.424179
     10 O2          6.0160    2.3410   -0.4700 o         1 MOL     -0.521929
     11 C5          4.3080    2.1350    2.3520 c3        1 MOL     -0.068220
     12 C6          4.0470    2.5720    3.7840 c         1 MOL      0.701997
     13 O3          3.7760    1.7680    4.7020 o         1 MOL     -0.652900
     14 O4          4.1200    3.8050    3.9860 o         1 MOL     -0.652900
     15 H4          7.0250    2.0060    3.6810 hn        1 MOL      0.349563
     16 H5          6.1940    3.0320    2.0030 h1        1 MOL      0.062622
     17 H6          3.8420    1.1730    2.1340 hc        1 MOL      0.023520
     18 H7          3.8750    2.8680    1.6730 hc        1 MOL      0.023520
     19 N2          6.9810    0.5430    0.3490 n         1 MOL     -0.226766
     20 C7          7.2810   -0.0240   -0.9570 c3        1 MOL     -0.002540
     21 C8          6.2660   -1.0790   -1.3630 c         1 MOL      0.527208
     22 O5          6.4480   -1.8290   -2.3570 o         1 MOL     -0.566184
     23 C9          8.6560   -0.7010   -0.9490 c3        1 MOL     -0.055351
     24 C10         8.9030   -1.7080    0.1920 c3        1 MOL     -0.004169
     25 C11        10.1060   -2.6550   -0.1490 c3        1 MOL     -0.050244
     26 C12        10.7650   -3.1570    1.1020 c3        1 MOL      0.141837
     27 N3         11.7550   -4.2350    0.8340 n4        1 MOL     -0.171579
     28 H8          7.2700    0.0310    1.1710 hn        1 MOL      0.086058
     29 H9          7.1630    0.7230   -1.7280 h1        1 MOL      0.127918
     30 H10         9.3900    0.0970   -0.8240 hc        1 MOL      0.013161
     31 H11         8.8120   -1.1700   -1.9090 hc        1 MOL      0.013161
     32 H12         8.1130   -2.4520    0.3420 hc        1 MOL      0.053426
     33 H13         8.9810   -1.1080    1.1080 hc        1 MOL      0.053426
     34 H14        10.9710   -2.2310   -0.6360 hc        1 MOL      0.037160
     35 H15         9.6390   -3.4820   -0.6900 hc        1 MOL      0.037160
     36 H16         9.9030   -3.5340    1.6530 hx        1 MOL      0.022293
     37 H17        11.1800   -2.3570    1.7150 hx        1 MOL      0.022293
     38 H18        11.4940   -4.7530    0.0140 hn        1 MOL      0.223259
     39 H19        12.6920   -3.8900    0.6600 hn        1 MOL      0.223259
     40 H20        11.8980   -4.8650    1.6130 hn        1 MOL      0.223259
     41 N4          5.1190   -1.1260   -0.7030 n         1 MOL     -0.412376
     42 C13         3.9200   -1.8030   -1.0770 c3        1 MOL     -0.179851
     43 C14         3.5190   -1.4450   -2.5180 c         1 MOL      0.477407
     44 O6          3.5990   -0.2680   -2.9150 o         1 MOL     -0.441176
     45 C15         2.8420   -1.2050   -0.0970 c3        1 MOL     -0.091310
     46 C16         1.5180   -2.0270   -0.1480 c         1 MOL      0.568074
     47 O7          1.1820   -2.7810   -1.1190 o         1 MOL     -0.613578
     48 O8          0.8200   -2.0010    0.8790 o         1 MOL     -0.613578
     49 H21         5.0610   -0.5100    0.0940 hn        1 MOL      0.362010
     50 H22         4.1420   -2.8570   -0.9640 h1        1 MOL      0.132525
     51 H23         2.6960   -0.1500   -0.3240 hc        1 MOL      0.085157
     52 H24         3.2000   -1.2580    0.9370 hc        1 MOL      0.085157
     53 N5          3.0950   -2.3780   -3.3460 n         1 MOL     -0.267743
     54 C17         2.4980   -2.1210   -4.6360 c3        1 MOL     -0.064964
     55 C18         1.2090   -1.3360   -4.5560 c         1 MOL      0.414060
     56 O9          0.8330   -0.8130   -5.6460 o         1 MOL     -0.539131
     57 H25         3.2330   -3.3470   -3.1150 hn        1 MOL      0.212183
     58 H26         2.3670   -3.0300   -5.2250 h1        1 MOL      0.090355
     59 H27         3.2640   -1.5650   -5.1750 h1        1 MOL      0.090355
     60 N6          0.5310   -1.2210   -3.3610 n         1 MOL     -0.263562
     61 C19        -0.6960   -0.4460   -3.0720 c3        1 MOL      0.194564
     62 C20        -0.2900    1.0030   -2.6170 c         1 MOL      0.349134
     63 O10        -1.1420    1.8300   -2.4930 o         1 MOL     -0.455496
     64 C21        -1.5030   -1.1670   -2.0380 c3        1 MOL     -0.019022
     65 C22        -2.0340   -2.5290   -2.4190 c         1 MOL      0.583831
     66 N7         -3.2340   -2.6010   -2.9550 n         1 MOL     -0.705316
     67 O11        -1.3620   -3.5720   -2.2510 o         1 MOL     -0.631566
     68 H28         0.9760   -1.6600   -2.5600 hn        1 MOL      0.099293
     69 H29        -1.2220   -0.3210   -4.0190 h1        1 MOL      0.027368
     70 H30        -2.3720   -0.5560   -1.8090 hc        1 MOL      0.001860
     71 H31        -0.9610   -1.3630   -1.1220 hc        1 MOL      0.001860
     72 H32        -3.7440   -1.7400   -3.0480 hn        1 MOL      0.346685
     73 H33        -3.6240   -3.5330   -2.9630 hn        1 MOL      0.346685
     74 N8          1.0460    1.2690   -2.4990 n         1 MOL     -0.109971
     75 C23         1.5770    2.5960   -2.1250 c3        1 MOL     -0.261706
     76 C24         0.9120    3.1990   -0.8930 c         1 MOL      0.631062
     77 O12         0.8930    2.6460    0.1830 o         1 MOL     -0.527864
     78 H34         1.7350    0.5940   -2.8150 hn        1 MOL      0.148289
     79 H35         1.5130    3.2880   -2.9680 h1        1 MOL      0.114657
     80 H36         2.6290    2.4670   -1.8650 h1        1 MOL      0.114657
     81 N9          0.2550    4.4150   -1.1250 n         1 MOL     -0.622272
     82 C25        -0.4090    5.2890   -0.1590 c3        1 MOL      0.045142
     83 C26        -1.6330    4.7510    0.4730 c         1 MOL      0.568222
     84 O13        -2.6670    5.4400    0.4150 o         1 MOL     -0.601966
     85 C27         0.5400    5.8220    0.9300 c3        1 MOL     -0.262962
     86 C28         1.9000    6.3300    0.4310 ca        1 MOL      0.157463
     87 C29         1.9970    7.7120    0.0470 ca        1 MOL     -0.160995
     88 C30         2.9860    5.4840    0.3100 ca        1 MOL     -0.160995
     89 C31         3.2760    8.1850   -0.3750 ca        1 MOL     -0.325713
     90 C32         4.2810    5.9800    0.0140 ca        1 MOL     -0.325713
     91 C33         4.4400    7.3760   -0.3520 ca        1 MOL      0.426961
     92 O14         5.6950    7.7860   -0.6670 oh        1 MOL     -0.565220
     93 H37         0.2280    4.7630   -2.0690 hn        1 MOL      0.357587
     94 H38        -0.6980    6.1360   -0.7710 h1        1 MOL      0.104711
     95 H39         0.7200    5.1000    1.7300 hc        1 MOL      0.101443
     96 H40        -0.0090    6.6610    1.3810 hc        1 MOL      0.101443
     97 H41         1.1130    8.3400   -0.0130 ha        1 MOL      0.136389
     98 H42         2.8100    4.4580    0.6160 ha        1 MOL      0.136389
     99 H43         3.3420    9.2120   -0.7280 ha        1 MOL      0.157256
    100 H44         5.1310    5.3270    0.0460 ha        1 MOL      0.157256
    101 H45         6.3660    7.1090   -0.5920 ho        1 MOL      0.411375
    102 N10        -1.6930    3.4240    0.7980 n         1 MOL     -0.405440
    103 C34        -2.9370    2.6980    0.9840 c3        1 MOL      0.272861
    104 C35        -3.7340    2.4750   -0.2830 c         1 MOL      0.247060
    105 O15        -3.7210    1.3910   -0.8930 o         1 MOL     -0.492725
    106 C36        -3.6910    3.0750    2.2200 c3        1 MOL      0.026913
    107 C37        -2.8310    2.8840    3.4720 c3        1 MOL      0.212103
    108 C38        -4.9300    2.1600    2.4970 c3        1 MOL     -0.789314
    109 C39        -2.0600    4.1050    3.9010 c3        1 MOL     -0.422694
    110 H46        -0.8350    2.8830    0.7750 hn        1 MOL      0.310655
    111 H47        -2.5420    1.7340    1.3140 h1        1 MOL      0.018298
    112 H48        -4.1280    4.0700    2.1700 hc        1 MOL      0.024726
    113 H49        -2.1950    2.0100    3.2930 hc        1 MOL      0.012861
    114 H50        -3.4450    2.5530    4.3140 hc        1 MOL      0.012861
    115 H51        -4.7010    1.2420    3.0460 hc        1 MOL      0.182277
    116 H52        -5.6030    2.7390    3.1190 hc        1 MOL      0.182277
    117 H53        -5.3940    1.9230    1.5450 hc        1 MOL      0.182277
    118 H54        -2.6920    4.8900    4.3210 hc        1 MOL      0.095222
    119 H55        -1.2600    3.8770    4.6010 hc        1 MOL      0.095222
    120 H56        -1.5900    4.5820    3.0500 hc        1 MOL      0.095222
    121 N11        -4.4760    3.4710   -0.7800 n         1 MOL     -0.165786
    122 C40        -5.2550    3.4280   -2.0300 c3        1 MOL      0.170116
    123 C41        -6.5260    2.6180   -1.8630 c         1 MOL      0.142482
    124 O16        -6.7370    1.7310   -2.7220 o         1 MOL     -0.462950
    125 C42        -5.7080    4.8700   -2.3370 c3        1 MOL      0.284779
    126 O17        -4.6540    5.6430   -2.5490 oh        1 MOL     -0.607016
    127 H57        -4.5650    4.2490   -0.1470 hn        1 MOL      0.220819
    128 H58        -4.6680    3.0140   -2.8600 h1        1 MOL      0.098596
    129 H59        -6.3160    5.2450   -1.5190 h1        1 MOL     -0.044578
    130 H60        -6.3540    4.7610   -3.2150 h1        1 MOL     -0.044578
    131 H61        -4.9460    6.5610   -2.4890 ho        1 MOL      0.408879
    132 N12        -7.2140    2.6960   -0.7500 n         1 MOL     -0.215134
    133 C43        -8.5050    2.0800   -0.4950 c3        1 MOL      0.209219
    134 C44        -8.4920    0.5150   -0.3020 c         1 MOL      0.407075
    135 O18        -9.5410   -0.1540   -0.3730 o         1 MOL     -0.500308
    136 C45        -9.5700    2.6970   -1.4030 c3        1 MOL     -0.429674
    137 H62        -6.9270    3.4190   -0.0920 hn        1 MOL      0.231377
    138 H63        -8.7730    2.5230    0.4630 h1        1 MOL      0.021184
    139 H64       -10.4870    2.1170   -1.4630 hc        1 MOL      0.129662
    140 H65        -9.7330    3.7330   -1.0960 hc        1 MOL      0.129662
    141 H66        -9.2340    2.7130   -2.4400 hc        1 MOL      0.129662
    142 N13        -7.2560   -0.0470   -0.2060 n         1 MOL     -0.539696
    143 C46        -7.1650   -1.4990   -0.0660 c3        1 MOL      0.403955
    144 C47        -6.2230   -2.1110    1.0630 c         1 MOL      0.206676
    145 O19        -5.5420   -1.3780    1.7730 o         1 MOL     -0.384336
    146 C48        -6.7960   -2.1470   -1.4570 c3        1 MOL     -0.357432
    147 H67        -6.4680    0.5800   -0.3050 hn        1 MOL      0.387353
    148 H68        -8.1370   -1.9510    0.1400 h1        1 MOL     -0.014886
    149 H69        -6.9200   -3.2210   -1.3750 hc        1 MOL      0.095491
    150 H70        -7.3610   -1.7000   -2.2820 hc        1 MOL      0.095491
    151 H71        -5.7460   -1.9920   -1.7280 hc        1 MOL      0.095491
    152 N14        -6.4380   -3.4160    1.3780 n         1 MOL     -0.164121
    153 C49        -5.8530   -4.1980    2.4620 c3        1 MOL     -0.278118
    154 C50        -5.9960   -3.5190    3.8770 c         1 MOL      0.440901
    155 O20        -5.1410   -3.6770    4.7560 o         1 MOL     -0.494513
    156 C51        -4.3750   -4.5610    2.1500 c3        1 MOL      0.447320
    157 C52        -4.0920   -5.5330    1.0110 c3        1 MOL     -0.040048
    158 C53        -2.6480   -5.8600    0.6340 c         1 MOL      0.638236
    159 O21        -2.2060   -5.8230   -0.5530 o         1 MOL     -0.703338
    160 O22        -1.7980   -6.1680    1.5290 o         1 MOL     -0.703338
    161 H72        -7.1360   -3.8990    0.8300 hn        1 MOL      0.233574
    162 H73        -6.3490   -5.1650    2.4710 h1        1 MOL      0.072885
    163 H74        -3.8380   -5.0690    2.9530 hc        1 MOL     -0.082958
    164 H75        -3.8370   -3.6240    2.0070 hc        1 MOL     -0.082958
    165 H76        -4.5880   -5.1480    0.1220 hc        1 MOL     -0.054937
    166 H77        -4.5170   -6.5230    1.1720 hc        1 MOL     -0.054937
    167 N15        -7.1320   -2.9290    4.0900 n         1 MOL     -0.220882
    168 C54        -7.4340   -2.1430    5.2200 c3        1 MOL     -0.061790
    169 H78        -6.7820   -2.4300    6.0450 h1        1 MOL      0.061707
    170 H79        -7.2790   -1.0910    4.9830 h1        1 MOL      0.061707
    171 H80        -8.4740   -2.3030    5.5070 h1        1 MOL      0.061707
    172 H81        -7.7830   -2.9890    3.3210 hn        1 MOL      0.197071
    173 Ca1         0.1070   -5.1120   -0.3270 Ca        1 MOL      1.815851
    174 O23         1.3390   -5.1640    1.9870 oh        1 MOL     -0.850643
    175 H82         1.5040   -4.5160    2.6800 ho        1 MOL      0.414051
    176 H83         1.8480   -5.9330    2.2370 ho        1 MOL      0.414051
    177 O24         2.8140   -5.8340   -0.6480 oh        1 MOL     -0.850643
    178 H84         3.3040   -5.8400   -1.4710 ho        1 MOL      0.414051
    179 H85         2.7660   -6.7590   -0.3910 ho        1 MOL      0.414051
    180 O25         0.1620   -7.8840   -0.3930 oh        1 MOL     -0.850643
    181 H86         0.5260   -8.3830    0.3420 ho        1 MOL      0.414051
    182 H87         0.2180   -8.4760   -1.1360 ho        1 MOL      0.414051
    183 O26        -1.5930   -3.0220    1.0220 oh        1 MOL     -0.850643
    184 H88        -2.2130   -2.2950    1.0600 ho        1 MOL      0.414051
    185 H89        -0.7350   -2.6170    1.1860 ho        1 MOL      0.414051
    186 O27         0.8050   -6.0670   -2.6750 oh        1 MOL     -0.850643
    187 H90         0.3030   -6.7490   -3.1220 ho        1 MOL      0.414051
    188 H91         1.6260   -6.0130   -3.1760 ho        1 MOL      0.414051
@<TRIPOS>BOND
     1    1    2 1   
     2    1    4 1   
     3    1    5 1   
     4    1    6 1   
     5    2    3 2   
     6    2    7 1   
     7    7    8 1   
     8    7   15 1   
     9    8    9 1   
    10    8   11 1   
    11    8   16 1   
    12    9   10 2   
    13    9   19 1   
    14   11   12 1   
    15   11   17 1   
    16   11   18 1   
    17   12   13 1   
    18   12   14 1   
    19   19   20 1   
    20   19   28 1   
    21   20   21 1   
    22   20   23 1   
    23   20   29 1   
    24   21   22 2   
    25   21   41 1   
    26   23   24 1   
    27   23   30 1   
    28   23   31 1   
    29   24   25 1   
    30   24   32 1   
    31   24   33 1   
    32   25   26 1   
    33   25   34 1   
    34   25   35 1   
    35   26   27 1   
    36   26   36 1   
    37   26   37 1   
    38   27   38 1   
    39   27   39 1   
    40   27   40 1   
    41   41   42 1   
    42   41   49 1   
    43   42   43 1   
    44   42   45 1   
    45   42   50 1   
    46   43   44 2   
    47   43   53 1   
    48   45   46 1   
    49   45   51 1   
    50   45   52 1   
    51   46   47 1   
    52   46   48 1   
    53   53   54 1   
    54   53   57 1   
    55   54   55 1   
    56   54   58 1   
    57   54   59 1   
    58   55   56 2   
    59   55   60 1   
    60   60   61 1   
    61   60   68 1   
    62   61   62 1   
    63   61   64 1   
    64   61   69 1   
    65   62   63 2   
    66   62   74 1   
    67   64   65 1   
    68   64   70 1   
    69   64   71 1   
    70   65   66 1   
    71   65   67 2   
    72   66   72 1   
    73   66   73 1   
    74   74   75 1   
    75   74   78 1   
    76   75   76 1   
    77   75   79 1   
    78   75   80 1   
    79   76   77 2   
    80   76   81 1   
    81   81   82 1   
    82   81   93 1   
    83   82   83 1   
    84   82   85 1   
    85   82   94 1   
    86   83   84 2   
    87   83  102 1   
    88   85   86 1   
    89   85   95 1   
    90   85   96 1   
    91   86   87 ar  
    92   86   88 ar  
    93   87   89 ar  
    94   87   97 1   
    95   88   90 ar  
    96   88   98 1   
    97   89   91 ar  
    98   89   99 1   
    99   90   91 ar  
   100   90  100 1   
   101   91   92 1   
   102   92  101 1   
   103  102  103 1   
   104  102  110 1   
   105  103  104 1   
   106  103  106 1   
   107  103  111 1   
   108  104  105 2   
   109  104  121 1   
   110  106  107 1   
   111  106  108 1   
   112  106  112 1   
   113  107  109 1   
   114  107  113 1   
   115  107  114 1   
   116  108  115 1   
   117  108  116 1   
   118  108  117 1   
   119  109  118 1   
   120  109  119 1   
   121  109  120 1   
   122  121  122 1   
   123  121  127 1   
   124  122  123 1   
   125  122  125 1   
   126  122  128 1   
   127  123  124 2   
   128  123  132 1   
   129  125  126 1   
   130  125  129 1   
   131  125  130 1   
   132  126  131 1   
   133  132  133 1   
   134  132  137 1   
   135  133  134 1   
   136  133  136 1   
   137  133  138 1   
   138  134  135 2   
   139  134  142 1   
   140  136  139 1   
   141  136  140 1   
   142  136  141 1   
   143  142  143 1   
   144  142  147 1   
   145  143  144 1   
   146  143  146 1   
   147  143  148 1   
   148  144  145 2   
   149  144  152 1   
   150  146  149 1   
   151  146  150 1   
   152  146  151 1   
   153  152  153 1   
   154  152  161 1   
   155  153  154 1   
   156  153  156 1   
   157  153  162 1   
   158  154  155 2   
   159  154  167 1   
   160  156  157 1   
   161  156  163 1   
   162  156  164 1   
   163  157  158 1   
   164  157  165 1   
   165  157  166 1   
   166  158  159 1   
   167  158  160 1   
   168  167  168 1   
   169  167  172 1   
   170  168  169 1   
   171  168  170 1   
   172  168  171 1   
   173  174  175 1   
   174  174  176 1   
   175  177  178 1   
   176  177  179 1   
   177  180  181 1   
   178  180  182 1   
   179  183  184 1   
   180  183  185 1   
   181  186  187 1   
   182  186  188 1   
@<TRIPOS>SUBSTRUCTURE
     1 MOL         1 TEMP              0 ****  ****    0 ROOT
