@<TRIPOS>MOLECULE
MOL
  181   177     1     0     0
SMALL
resp


@<TRIPOS>ATOM
      1 C1          9.7230    6.8950    0.0350 c3        1 MOL     -0.251981
      2 C2          8.7630    5.8350    0.3830 c         1 MOL      0.759438
      3 O1          7.8530    6.1090    1.1420 o         1 MOL     -0.578988
      4 H1          9.1950    7.7170   -0.4490 hc        1 MOL      0.047899
      5 H2         10.2080    7.2590    0.9410 hc        1 MOL      0.047899
      6 H3         10.4750    6.4960   -0.6460 hc        1 MOL      0.047899
      7 N1          9.0190    4.5290    0.0400 n         1 MOL     -0.730136
      8 C3         10.0860    3.9630   -0.8550 c3        1 MOL      0.533632
      9 C4         10.8170    2.7680   -0.2050 c         1 MOL      0.262816
     10 O2         10.3880    2.3400    0.8750 o         1 MOL     -0.375699
     11 C5          9.4930    3.5890   -2.2070 c3        1 MOL     -0.481052
     12 C6          8.4610    2.5580   -2.1350 c         1 MOL      0.829711
     13 O3          7.2840    2.7030   -1.7300 o         1 MOL     -0.723107
     14 O4          8.8640    1.4430   -2.5310 o         1 MOL     -0.723107
     15 H4          8.4960    3.8180    0.5180 hn        1 MOL      0.379584
     16 H5         10.8450    4.7420   -1.0080 h1        1 MOL     -0.025669
     17 H6         10.3720    3.3230   -2.7900 hc        1 MOL      0.066288
     18 H7          8.9590    4.4910   -2.5110 hc        1 MOL      0.066288
     19 N2         11.8750    2.2010   -0.8350 n         1 MOL     -0.522077
     20 C7         12.6460    1.1300   -0.1640 c3        1 MOL      0.316518
     21 C8         11.9710   -0.0860    0.5210 c         1 MOL      0.337267
     22 O5         12.5540   -0.8070    1.3370 o         1 MOL     -0.517867
     23 C9         13.6150    1.8970    0.8130 c3        1 MOL     -0.501068
     24 H8         12.2960    2.5640   -1.6700 hn        1 MOL      0.332964
     25 H9         13.3300    0.7870   -0.9470 h1        1 MOL      0.010150
     26 H10        14.4870    1.2800    1.0100 hc        1 MOL      0.139177
     27 H11        13.7790    2.8570    0.3190 hc        1 MOL      0.139177
     28 H12        13.0250    1.9490    1.7360 hc        1 MOL      0.139177
     29 N3         10.7210   -0.4430    0.1920 n         1 MOL     -0.243691
     30 C10         9.9300   -1.5290    0.6850 c3        1 MOL      0.133980
     31 C11         9.0990   -2.1960   -0.4020 c         1 MOL      0.469606
     32 O6          8.9300   -1.6540   -1.4780 o         1 MOL     -0.570890
     33 C12         9.0130   -1.0150    1.8380 c3        1 MOL      0.018175
     34 C13         7.8340   -0.0670    1.5480 c         1 MOL      0.544943
     35 O7          7.2440    0.5000    2.5280 o         1 MOL     -0.635335
     36 O8          7.5860    0.2040    0.3330 o         1 MOL     -0.635335
     37 H13        10.2200    0.1660   -0.4440 hn        1 MOL      0.105419
     38 H14        10.4910   -2.3200    1.1930 h1        1 MOL     -0.006528
     39 H15         9.6490   -0.4620    2.5330 hc        1 MOL      0.008991
     40 H16         8.7030   -1.8710    2.4280 hc        1 MOL      0.008991
     41 N4          8.6200   -3.3560   -0.0810 n         1 MOL     -0.406825
     42 C14         7.6390   -4.1360   -0.8750 c3        1 MOL     -0.146488
     43 C15         6.1850   -3.6540   -0.8800 c         1 MOL      0.504829
     44 O9          5.9390   -2.4370   -0.6920 o         1 MOL     -0.481954
     45 H17         8.8340   -3.7890    0.8040 hn        1 MOL      0.323654
     46 H18         7.6350   -5.1850   -0.5710 h1        1 MOL      0.096117
     47 H19         7.9280   -4.0130   -1.9180 h1        1 MOL      0.096117
     48 N5          5.2670   -4.5680   -0.6290 n         1 MOL     -0.447906
     49 C16         3.7780   -4.2580   -0.3990 c3        1 MOL      0.052959
     50 C17         3.5180   -3.4330    0.8890 c         1 MOL      0.582817
     51 O10         4.3440   -3.4350    1.8060 o         1 MOL     -0.475024
     52 C18         3.0470   -5.6470   -0.1620 c3        1 MOL     -0.267730
     53 C19         2.9630   -6.4600   -1.3960 c         1 MOL      0.677893
     54 N6          1.7470   -6.8130   -1.8190 n         1 MOL     -0.791534
     55 O11         3.9730   -6.7580   -2.0470 o         1 MOL     -0.589072
     56 H20         5.5050   -5.5390   -0.7950 hn        1 MOL      0.292606
     57 H21         3.3720   -3.7490   -1.2670 h1        1 MOL      0.085625
     58 H22         2.0530   -5.5250    0.2800 hc        1 MOL      0.099195
     59 H23         3.6250   -6.2120    0.5560 hc        1 MOL      0.099195
     60 H24         0.9550   -6.4960   -1.2700 hn        1 MOL      0.386028
     61 H25         1.6400   -7.3900   -2.6420 hn        1 MOL      0.386028
     62 N7          2.3230   -2.8060    0.9960 n         1 MOL     -0.653455
     63 C20         1.7930   -2.2390    2.2550 c3        1 MOL      0.206060
     64 C21         1.7860   -0.7160    2.3630 c         1 MOL      0.457098
     65 O12         2.7600   -0.0790    1.9580 o         1 MOL     -0.480487
     66 H26         1.7920   -2.6610    0.1510 hn        1 MOL      0.351178
     67 H27         2.3000   -2.5130    3.1740 h1        1 MOL      0.047733
     68 H28         0.7830   -2.5870    2.4930 h1        1 MOL      0.047733
     69 N8          0.8250   -0.1150    3.0740 n         1 MOL     -0.406928
     70 C22        -0.1450   -0.7830    4.0010 c3        1 MOL      0.013945
     71 C23        -1.5460   -0.8480    3.4540 c         1 MOL      0.471299
     72 O13        -2.3580   -1.6650    4.0160 o         1 MOL     -0.564306
     73 C24        -0.2390    0.0140    5.3440 c3        1 MOL      0.287152
     74 C25         1.0210   -0.1470    6.2590 c3        1 MOL     -0.338325
     75 O14        -0.3990    1.3180    4.8040 oh        1 MOL     -0.586955
     76 H29         0.8050    0.8970    3.1430 hn        1 MOL      0.293632
     77 H30         0.0970   -1.7940    4.3220 h1        1 MOL      0.057051
     78 H31        -1.1500   -0.1590    5.9090 h1        1 MOL      0.034540
     79 H32        -0.7150    1.8950    5.5070 ho        1 MOL      0.391799
     80 H33         1.0860   -1.1700    6.6430 hc        1 MOL      0.095702
     81 H34         1.9480    0.0380    5.7130 hc        1 MOL      0.095702
     82 H35         0.9280    0.4970    7.1340 hc        1 MOL      0.095702
     83 N9         -1.8490    0.0760    2.5080 n         1 MOL     -0.401275
     84 C26        -3.2090    0.2580    1.9610 c3        1 MOL     -0.197809
     85 C27        -3.3460    0.2580    0.3870 c         1 MOL      0.605710
     86 O15        -2.6440    1.0250   -0.2670 o         1 MOL     -0.562820
     87 C28        -4.0180    1.3330    2.6600 c3        1 MOL      0.237438
     88 C29        -3.6510    2.7450    2.4540 c3        1 MOL     -0.065592
     89 C30        -4.0540    0.9470    4.1470 c3        1 MOL     -0.205831
     90 C31        -4.7460    3.6980    3.0600 c3        1 MOL     -0.119607
     91 H36        -1.0740    0.6350    2.1560 hn        1 MOL      0.263946
     92 H37        -3.5900   -0.7290    2.2010 h1        1 MOL      0.236813
     93 H38        -5.0420    1.2830    2.3140 hc        1 MOL      0.025796
     94 H39        -3.7270    2.9650    1.3860 hc        1 MOL      0.030789
     95 H40        -2.7100    3.0440    2.9250 hc        1 MOL      0.030789
     96 H41        -4.7160    1.6250    4.6820 hc        1 MOL      0.032923
     97 H42        -4.3190   -0.1060    4.2710 hc        1 MOL      0.032923
     98 H43        -3.1080    1.0940    4.6710 hc        1 MOL      0.032923
     99 H44        -5.7510    3.4130    2.7470 hc        1 MOL      0.025308
    100 H45        -4.6750    3.6780    4.1470 hc        1 MOL      0.025308
    101 H46        -4.5280    4.7400    2.8180 hc        1 MOL      0.025308
    102 N10        -4.2450   -0.5480   -0.2020 n         1 MOL     -0.577843
    103 C32        -5.2240   -1.4440    0.4890 c3        1 MOL      0.169009
    104 C33        -6.6280   -1.3710   -0.2080 c         1 MOL      0.553934
    105 O16        -6.6020   -1.2830   -1.4300 o         1 MOL     -0.429928
    106 C34        -4.6890   -2.8660    0.6570 c3        1 MOL     -0.183370
    107 C35        -4.2050   -3.4980   -0.6140 c         1 MOL      0.649402
    108 O17        -3.0600   -3.2070   -1.1320 o         1 MOL     -0.712051
    109 O18        -4.9700   -4.3120   -1.1960 o         1 MOL     -0.712051
    110 H47        -4.3140   -0.5370   -1.2120 hn        1 MOL      0.385921
    111 H48        -5.4620   -1.0550    1.4860 h1        1 MOL     -0.079139
    112 H49        -5.5540   -3.4260    1.0030 hc        1 MOL      0.012292
    113 H50        -3.9140   -2.9280    1.4200 hc        1 MOL      0.012292
    114 N11        -7.7480   -1.3860    0.5430 n         1 MOL     -0.611478
    115 C36        -9.1660   -1.2390    0.0680 c3        1 MOL      0.318041
    116 C37        -9.9170   -0.2880    1.0670 c         1 MOL      0.095872
    117 O19        -9.7840   -0.3720    2.2880 o         1 MOL     -0.481576
    118 C38        -9.8410   -2.5530   -0.0370 c3        1 MOL     -0.466692
    119 C39       -11.3070   -2.4880   -0.4710 ca        1 MOL      0.173648
    120 C40       -12.3070   -2.4170    0.5150 ca        1 MOL     -0.147339
    121 C41       -11.6610   -2.7000   -1.7990 ca        1 MOL     -0.147339
    122 C42       -13.6990   -2.5780    0.1150 ca        1 MOL     -0.177771
    123 C43       -13.0120   -2.7920   -2.1960 ca        1 MOL     -0.177771
    124 C44       -14.0070   -2.7760   -1.2290 ca        1 MOL     -0.067428
    125 H51        -7.6360   -1.5380    1.5370 hn        1 MOL      0.354821
    126 H52        -9.1090   -0.7790   -0.9170 h1        1 MOL      0.069851
    127 H53        -9.6890   -2.9250    0.9740 hc        1 MOL      0.166864
    128 H54        -9.3140   -3.0630   -0.8460 hc        1 MOL      0.166864
    129 H55       -12.1430   -2.3340    1.5810 ha        1 MOL      0.140556
    130 H56       -10.9040   -2.6780   -2.5690 ha        1 MOL      0.140556
    131 H57       -14.5510   -2.5660    0.7790 ha        1 MOL      0.120394
    132 H58       -13.2680   -3.0010   -3.2260 ha        1 MOL      0.120394
    133 H59       -15.0250   -3.0280   -1.4810 ha        1 MOL      0.081389
    134 N12       -10.7330    0.6460    0.5440 n         1 MOL      0.240731
    135 C45       -11.0850    0.9580   -0.8170 c3        1 MOL     -0.119153
    136 C46       -10.1160    1.8900   -1.5950 c         1 MOL      0.454759
    137 O20       -10.1120    1.8700   -2.8630 o         1 MOL     -0.504690
    138 C47       -12.4780    1.5250   -0.9480 c3        1 MOL      0.049910
    139 C48       -12.5940    2.2280    0.4440 c3        1 MOL     -0.097725
    140 C49       -11.6700    1.3680    1.3840 c3        1 MOL     -0.112264
    141 H60       -11.0340    0.0640   -1.4320 h1        1 MOL      0.080559
    142 H61       -12.7180    2.1650   -1.7920 hc        1 MOL      0.010390
    143 H62       -13.2230    0.7220   -0.9670 hc        1 MOL      0.010390
    144 H63       -12.1820    3.2170    0.2590 hc        1 MOL      0.031310
    145 H64       -13.6020    2.1950    0.8450 hc        1 MOL      0.031310
    146 H65       -11.1270    1.9840    2.1050 h1        1 MOL      0.050251
    147 H66       -12.3320    0.6720    1.9060 h1        1 MOL      0.050251
    148 N13        -9.1680    2.6040   -0.8750 n         1 MOL     -0.379000
    149 C50        -8.1060    3.5320   -1.3770 c3        1 MOL      0.042171
    150 C51        -8.1590    4.8140   -0.5290 c         1 MOL      0.427417
    151 O21        -8.4360    4.8040    0.6460 o         1 MOL     -0.581020
    152 C52        -6.7300    2.8020   -1.1990 c3        1 MOL      0.054942
    153 C53        -6.6490    1.6380   -2.1480 c3        1 MOL     -0.308536
    154 C54        -6.6020    1.9060   -3.7210 c         1 MOL      0.748078
    155 O22        -6.8110    3.0450   -4.1420 o         1 MOL     -0.722620
    156 O23        -6.3460    0.9060   -4.4590 o         1 MOL     -0.722620
    157 H67        -9.1430    2.6690    0.1330 hn        1 MOL      0.239549
    158 H68        -8.3490    3.9000   -2.3720 h1        1 MOL      0.138925
    159 H69        -6.4730    2.5670   -0.1690 hc        1 MOL      0.023879
    160 H70        -5.9570    3.5010   -1.5070 hc        1 MOL      0.023879
    161 H71        -7.4400    0.9180   -1.9850 hc        1 MOL      0.059047
    162 H72        -5.6720    1.2230   -1.9120 hc        1 MOL      0.059047
    163 N14        -7.6970    5.9640   -1.0040 n         1 MOL     -0.365340
    164 C55        -7.2050    6.2340   -2.3540 c3        1 MOL     -0.004229
    165 H73        -7.7870    7.0410   -2.7980 h1        1 MOL      0.034501
    166 H74        -6.1560    6.5260   -2.3060 h1        1 MOL      0.034501
    167 H75        -7.3060    5.3360   -2.9640 h1        1 MOL      0.034501
    168 H76        -7.7150    6.7270   -0.3420 hn        1 MOL      0.262929
    169 Ca1         6.7170   -0.0740   -2.0250 Ca        1 MOL      1.762128
    170 O24         4.4240    0.6750   -1.0780 oh        1 MOL     -0.874975
    171 H77         3.9650    0.3790   -0.2960 ho        1 MOL      0.429065
    172 H78         3.7460    1.0900   -1.6050 ho        1 MOL      0.429065
    173 O25         7.7450   -1.2980   -4.2520 oh        1 MOL     -0.874975
    174 H79         8.0690   -2.1960   -4.3420 ho        1 MOL      0.429065
    175 H80         8.1450   -0.8250   -4.9880 ho        1 MOL      0.429065
    176 O26         5.7140    1.4640   -3.9380 oh        1 MOL     -0.874975
    177 H81         4.8240    1.7150   -4.1600 ho        1 MOL      0.429065
    178 H82         6.2520    1.8890   -4.6130 ho        1 MOL      0.429065
    179 O27         4.7230   -1.4710   -3.2090 oh        1 MOL     -0.874975
    180 H83         3.9320   -1.1660   -3.6620 ho        1 MOL      0.429065
    181 H84         4.9950   -2.2490   -3.6930 ho        1 MOL      0.429065
@<TRIPOS>BOND
     1    1    2 1   
     2    1    4 1   
     3    1    5 1   
     4    1    6 1   
     5    2    3 2   
     6    2    7 1   
     7    7    8 1   
     8    7   15 1   
     9    8    9 1   
    10    8   11 1   
    11    8   16 1   
    12    9   10 2   
    13    9   19 1   
    14   11   12 1   
    15   11   17 1   
    16   11   18 1   
    17   12   13 1   
    18   12   14 1   
    19   19   20 1   
    20   19   24 1   
    21   20   21 1   
    22   20   23 1   
    23   20   25 1   
    24   21   22 2   
    25   21   29 1   
    26   23   26 1   
    27   23   27 1   
    28   23   28 1   
    29   29   30 1   
    30   29   37 1   
    31   30   31 1   
    32   30   33 1   
    33   30   38 1   
    34   31   32 2   
    35   31   41 1   
    36   33   34 1   
    37   33   39 1   
    38   33   40 1   
    39   34   35 1   
    40   34   36 1   
    41   41   42 1   
    42   41   45 1   
    43   42   43 1   
    44   42   46 1   
    45   42   47 1   
    46   43   44 2   
    47   43   48 1   
    48   48   49 1   
    49   48   56 1   
    50   49   50 1   
    51   49   52 1   
    52   49   57 1   
    53   50   51 2   
    54   50   62 1   
    55   52   53 1   
    56   52   58 1   
    57   52   59 1   
    58   53   54 1   
    59   53   55 2   
    60   54   60 1   
    61   54   61 1   
    62   62   63 1   
    63   62   66 1   
    64   63   64 1   
    65   63   67 1   
    66   63   68 1   
    67   64   65 2   
    68   64   69 1   
    69   69   70 1   
    70   69   76 1   
    71   70   71 1   
    72   70   73 1   
    73   70   77 1   
    74   71   72 2   
    75   71   83 1   
    76   73   74 1   
    77   73   75 1   
    78   73   78 1   
    79   74   80 1   
    80   74   81 1   
    81   74   82 1   
    82   75   79 1   
    83   83   84 1   
    84   83   91 1   
    85   84   85 1   
    86   84   87 1   
    87   84   92 1   
    88   85   86 2   
    89   85  102 1   
    90   87   88 1   
    91   87   89 1   
    92   87   93 1   
    93   88   90 1   
    94   88   94 1   
    95   88   95 1   
    96   89   96 1   
    97   89   97 1   
    98   89   98 1   
    99   90   99 1   
   100   90  100 1   
   101   90  101 1   
   102  102  103 1   
   103  102  110 1   
   104  103  104 1   
   105  103  106 1   
   106  103  111 1   
   107  104  105 2   
   108  104  114 1   
   109  106  107 1   
   110  106  112 1   
   111  106  113 1   
   112  107  108 1   
   113  107  109 1   
   114  114  115 1   
   115  114  125 1   
   116  115  116 1   
   117  115  118 1   
   118  115  126 1   
   119  116  117 2   
   120  116  134 1   
   121  118  119 1   
   122  118  127 1   
   123  118  128 1   
   124  119  120 ar  
   125  119  121 ar  
   126  120  122 ar  
   127  120  129 1   
   128  121  123 ar  
   129  121  130 1   
   130  122  124 ar  
   131  122  131 1   
   132  123  124 ar  
   133  123  132 1   
   134  124  133 1   
   135  134  135 1   
   136  134  140 1   
   137  135  136 1   
   138  135  138 1   
   139  135  141 1   
   140  136  137 2   
   141  136  148 1   
   142  138  139 1   
   143  138  142 1   
   144  138  143 1   
   145  139  140 1   
   146  139  144 1   
   147  139  145 1   
   148  140  146 1   
   149  140  147 1   
   150  148  149 1   
   151  148  157 1   
   152  149  150 1   
   153  149  152 1   
   154  149  158 1   
   155  150  151 2   
   156  150  163 1   
   157  152  153 1   
   158  152  159 1   
   159  152  160 1   
   160  153  154 1   
   161  153  161 1   
   162  153  162 1   
   163  154  155 1   
   164  154  156 1   
   165  163  164 1   
   166  163  168 1   
   167  164  165 1   
   168  164  166 1   
   169  164  167 1   
   170  170  171 1   
   171  170  172 1   
   172  173  174 1   
   173  173  175 1   
   174  176  177 1   
   175  176  178 1   
   176  179  180 1   
   177  179  181 1   
@<TRIPOS>SUBSTRUCTURE
     1 MOL         1 TEMP              0 ****  ****    0 ROOT
