@<TRIPOS>MOLECULE
MOL
  175   173     1     0     0
SMALL
resp


@<TRIPOS>ATOM
      1 C1         -7.1980    7.6680    2.1220 c3        1 MOL     -0.370665
      2 C2         -7.8480    6.8670    1.0050 c         1 MOL      0.655219
      3 O1         -7.4480    6.9290   -0.1930 o         1 MOL     -0.566345
      4 H1         -7.8160    8.5360    2.3530 hc        1 MOL      0.095534
      5 H2         -7.1030    7.0440    3.0100 hc        1 MOL      0.095534
      6 H3         -6.2090    8.0000    1.8050 hc        1 MOL      0.095534
      7 N1         -8.9270    6.1400    1.3230 n         1 MOL     -0.574348
      8 C3         -9.6460    5.2420    0.5200 c3        1 MOL      0.370126
      9 C4         -8.9570    3.9350    0.1230 c         1 MOL      0.432753
     10 O2         -9.5640    2.8710    0.1500 o         1 MOL     -0.464765
     11 C5        -11.1100    5.1210    0.9800 c3        1 MOL     -0.473821
     12 C6        -11.9750    4.3820   -0.0370 c         1 MOL      0.702490
     13 O3        -12.8730    3.5660    0.3700 o         1 MOL     -0.701321
     14 O4        -11.7850    4.4780   -1.2830 o         1 MOL     -0.701321
     15 H4         -9.2590    6.1020    2.2740 hn        1 MOL      0.295831
     16 H5         -9.6740    5.7140   -0.4500 h1        1 MOL      0.031902
     17 H6        -11.4750    6.1370    1.1480 hc        1 MOL      0.084701
     18 H7        -11.2470    4.6650    1.9660 hc        1 MOL      0.084701
     19 N2         -7.7170    3.9410   -0.3420 n         1 MOL     -0.646656
     20 C7         -6.9770    2.7310   -0.8840 c3        1 MOL      0.705319
     21 C8         -5.6760    2.4110   -0.1250 c         1 MOL      0.334695
     22 O5         -5.0690    3.1360    0.6410 o         1 MOL     -0.521370
     23 C9         -6.7610    2.8820   -2.4140 c3        1 MOL     -0.301448
     24 H8         -7.2560    4.8370   -0.2510 hn        1 MOL      0.259552
     25 H9         -7.5740    1.8370   -0.6870 h1        1 MOL     -0.100102
     26 H10        -5.9130    2.3070   -2.7890 hc        1 MOL      0.068340
     27 H11        -7.5430    2.4550   -3.0590 hc        1 MOL      0.068340
     28 H12        -6.5360    3.9400   -2.5640 hc        1 MOL      0.068340
     29 N3         -5.1320    1.1880   -0.2330 n         1 MOL     -0.405107
     30 C10        -5.4090    0.0460   -1.1550 c3        1 MOL     -0.086106
     31 C11        -5.5180   -1.3550   -0.4270 c         1 MOL      0.554106
     32 O6         -4.5490   -1.7800    0.1680 o         1 MOL     -0.535484
     33 C12        -4.4460   -0.1240   -2.3840 c3        1 MOL     -0.225006
     34 C13        -2.9490   -0.4260   -2.0740 c         1 MOL      0.760555
     35 O7         -2.2890   -1.0990   -2.8230 o         1 MOL     -0.724298
     36 O8         -2.4530    0.1380   -1.0670 o         1 MOL     -0.724298
     37 H13        -4.1900    1.2780    0.1290 hn        1 MOL      0.315477
     38 H14        -6.4080    0.2290   -1.5350 h1        1 MOL      0.085197
     39 H15        -4.4040    0.8410   -2.8850 hc        1 MOL      0.060685
     40 H16        -4.8250   -0.8970   -3.0540 hc        1 MOL      0.060685
     41 N4         -6.5910   -2.1340   -0.7440 n         1 MOL     -0.492256
     42 C14        -6.8130   -3.5170   -0.3070 c3        1 MOL      0.142918
     43 C15        -6.8480   -4.5730   -1.3710 c         1 MOL      0.584503
     44 O9         -7.9180   -4.9070   -1.8150 o         1 MOL     -0.554360
     45 H17        -7.2460   -1.6910   -1.3720 hn        1 MOL      0.309124
     46 H18        -7.7180   -3.6540    0.2730 h1        1 MOL      0.023056
     47 H19        -6.0370   -3.8540    0.3750 h1        1 MOL      0.023056
     48 N5         -5.6490   -5.0790   -1.7330 n         1 MOL     -0.601337
     49 C16        -4.2720   -4.7510   -1.2120 c3        1 MOL      0.090660
     50 C17        -4.0440   -5.3440    0.1640 c         1 MOL      0.561255
     51 O10        -4.4610   -6.4510    0.5160 o         1 MOL     -0.567586
     52 C18        -3.1710   -5.1150   -2.2170 c3        1 MOL     -0.085088
     53 C19        -1.8120   -4.4800   -1.9610 c         1 MOL      0.437504
     54 N6         -0.8020   -4.8790   -2.6870 n         1 MOL     -0.503428
     55 O11        -1.6550   -3.5760   -1.1410 o         1 MOL     -0.531476
     56 H20        -5.7180   -5.8700   -2.3580 hn        1 MOL      0.318620
     57 H21        -4.1460   -3.6740   -1.0890 h1        1 MOL      0.133734
     58 H22        -3.4950   -4.8160   -3.2210 hc        1 MOL      0.050587
     59 H23        -3.1030   -6.2020   -2.2710 hc        1 MOL      0.050587
     60 H24        -0.9600   -5.5750   -3.4010 hn        1 MOL      0.280097
     61 H25        -0.0590   -4.2030   -2.7540 hn        1 MOL      0.280097
     62 N7         -3.4050   -4.5450    1.0430 n         1 MOL     -0.266590
     63 C20        -3.1360   -4.9710    2.4640 c3        1 MOL     -0.046510
     64 C21        -1.6600   -5.2230    2.8480 c         1 MOL      0.480623
     65 O12        -1.2950   -5.7490    3.8830 o         1 MOL     -0.592346
     66 H26        -3.1780   -3.5820    0.8280 hn        1 MOL      0.215737
     67 H27        -3.6960   -5.7900    2.9080 h1        1 MOL      0.062400
     68 H28        -3.4180   -4.1620    3.1390 h1        1 MOL      0.062400
     69 N8         -0.7410   -4.8560    1.9830 n         1 MOL     -0.045109
     70 C22         0.7580   -5.0000    2.1110 c3        1 MOL     -0.252324
     71 C23         1.3830   -3.6780    1.8150 c         1 MOL      0.319163
     72 O13         0.9310   -2.9050    0.9890 o         1 MOL     -0.365339
     73 C24         1.3080   -6.0690    1.1990 c3        1 MOL      0.562057
     74 C25         0.9400   -7.4380    1.7720 c3        1 MOL     -0.458534
     75 O14         0.6960   -5.9510   -0.0550 oh        1 MOL     -0.699469
     76 H29        -1.0850   -4.4810    1.1110 hn        1 MOL      0.098128
     77 H30         1.0470   -5.1430    3.1450 h1        1 MOL      0.106978
     78 H31         2.3680   -5.8520    1.1560 h1        1 MOL     -0.029875
     79 H32         1.2400   -5.4920   -0.6960 ho        1 MOL      0.435476
     80 H33        -0.1180   -7.5000    2.0020 hc        1 MOL      0.105670
     81 H34         1.3300   -8.1360    1.0270 hc        1 MOL      0.105670
     82 H35         1.5350   -7.5370    2.6760 hc        1 MOL      0.105670
     83 N9          2.4840   -3.4250    2.5390 n         1 MOL     -0.217125
     84 C26         3.3600   -2.2310    2.3690 c3        1 MOL     -0.031845
     85 C27         4.2800   -2.5750    1.1210 c         1 MOL      0.417084
     86 O15         5.2070   -3.3360    1.1100 o         1 MOL     -0.590776
     87 C28         4.1380   -1.7870    3.6250 c3        1 MOL      0.038598
     88 C29         4.9870   -0.5690    3.3340 c3        1 MOL      0.102099
     89 C30         3.0770   -1.4530    4.6680 c3        1 MOL     -0.195430
     90 C31         5.8480   -0.0730    4.5000 c3        1 MOL     -0.260078
     91 H36         2.7330   -4.0690    3.2800 hn        1 MOL      0.226088
     92 H37         2.7140   -1.4240    2.0280 h1        1 MOL      0.052680
     93 H38         4.7670   -2.6530    3.8440 hc        1 MOL      0.018408
     94 H39         4.3790    0.2040    2.8680 hc        1 MOL      0.029635
     95 H40         5.7260   -0.8870    2.6000 hc        1 MOL      0.029635
     96 H41         3.5300   -1.2450    5.6400 hc        1 MOL      0.047548
     97 H42         2.3750   -0.6550    4.4170 hc        1 MOL      0.047548
     98 H43         2.3800   -2.2400    4.9420 hc        1 MOL      0.047548
     99 H44         6.5460   -0.8550    4.8000 hc        1 MOL      0.056190
    100 H45         6.4180    0.8190    4.2710 hc        1 MOL      0.056190
    101 H46         5.2150    0.1830    5.3560 hc        1 MOL      0.056190
    102 N10         3.9920   -1.9190    0.0490 n         1 MOL     -0.156014
    103 C32         4.5830   -2.2010   -1.1870 c3        1 MOL      0.580949
    104 C33         5.6050   -1.1560   -1.6370 c         1 MOL      0.315900
    105 O16         5.8700   -1.1050   -2.8240 o         1 MOL     -0.550346
    106 C34         3.6220   -2.4610   -2.3560 c3        1 MOL     -0.637458
    107 C35         2.4030   -3.3450   -1.9900 c         1 MOL      0.861646
    108 O17         2.5380   -4.4710   -1.5110 o         1 MOL     -0.725825
    109 O18         1.2160   -2.8730   -2.0740 o         1 MOL     -0.725825
    110 H47         3.1460   -1.3610    0.0200 hn        1 MOL      0.036310
    111 H48         5.1780   -3.1010   -1.0700 h1        1 MOL     -0.017749
    112 H49         4.0710   -2.8960   -3.2400 hc        1 MOL      0.155230
    113 H50         3.2450   -1.4820   -2.6650 hc        1 MOL      0.155230
    114 N11         6.1820   -0.3770   -0.7740 n         1 MOL     -0.435980
    115 C36         7.1960    0.6010   -1.1780 c3        1 MOL      0.548447
    116 C37         6.9120    1.9970   -0.5500 c         1 MOL      0.257225
    117 O19         6.6680    1.9210    0.6540 o         1 MOL     -0.516144
    118 C38         8.6170    0.2110   -0.7650 c3        1 MOL     -0.403811
    119 C39         9.6490    1.3810   -0.9320 ca        1 MOL      0.154836
    120 C40        10.1180    2.1760    0.1420 ca        1 MOL     -0.222249
    121 C41        10.1940    1.5940   -2.2230 ca        1 MOL     -0.222249
    122 C42        11.1380    3.1710   -0.0710 ca        1 MOL     -0.064074
    123 C43        11.1750    2.5600   -2.3800 ca        1 MOL     -0.064074
    124 C44        11.6560    3.3440   -1.3750 ca        1 MOL     -0.146984
    125 H51         5.9310   -0.5280    0.1850 hn        1 MOL      0.170628
    126 H52         7.2340    0.6200   -2.2640 h1        1 MOL     -0.030440
    127 H53         8.9490   -0.5840   -1.4390 hc        1 MOL      0.128455
    128 H54         8.5920   -0.0980    0.2800 hc        1 MOL      0.128455
    129 H55         9.7800    1.9640    1.1510 ha        1 MOL      0.147956
    130 H56         9.8360    1.1070   -3.1160 ha        1 MOL      0.147956
    131 H57        11.5470    3.6830    0.7820 ha        1 MOL      0.092480
    132 H58        11.5370    2.6900   -3.3900 ha        1 MOL      0.092480
    133 H59        12.4710    4.0180   -1.5640 ha        1 MOL      0.106865
    134 N12         6.7710    3.1330   -1.2400 n         1 MOL     -0.088721
    135 C45         6.6340    4.4590   -0.7350 c3        1 MOL      0.135853
    136 C46         5.2590    4.8450   -0.0660 c         1 MOL      0.330102
    137 O20         5.1270    5.9320    0.4720 o         1 MOL     -0.547168
    138 C47         7.1500    5.4570   -1.7930 c3        1 MOL     -0.230919
    139 C48         7.8280    4.5900   -2.7990 c3        1 MOL      0.236998
    140 C49         7.1240    3.2540   -2.6820 c3        1 MOL     -0.079322
    141 H60         7.3610    4.4350    0.0820 h1        1 MOL      0.059557
    142 H61         6.2830    5.8490   -2.3240 hc        1 MOL      0.084189
    143 H62         7.8250    6.2620   -1.4940 hc        1 MOL      0.084189
    144 H63         7.8160    5.0580   -3.7840 hc        1 MOL     -0.050793
    145 H64         8.8490    4.3510   -2.5080 hc        1 MOL     -0.050793
    146 H65         6.2080    3.3040   -3.2670 h1        1 MOL      0.033988
    147 H66         7.8310    2.4720   -2.9800 h1        1 MOL      0.033988
    148 N13         4.2690    4.0180   -0.0300 n         1 MOL     -0.172352
    149 C50         2.9320    4.3100    0.5390 c3        1 MOL     -0.122285
    150 C51         2.9960    4.7360    1.9720 c         1 MOL      0.544130
    151 O21         2.1200    5.4990    2.4460 o         1 MOL     -0.564878
    152 C52         1.9110    3.1530    0.2750 c3        1 MOL     -0.161288
    153 C53         2.2890    1.8670    0.9870 c3        1 MOL      0.288221
    154 C54         1.5460    0.7250    0.4050 c         1 MOL      0.546896
    155 O22         2.0980    0.0660   -0.5170 o         1 MOL     -0.698239
    156 O23         0.3530    0.4620    0.7220 o         1 MOL     -0.698239
    157 H67         4.4490    3.0730   -0.3300 hn        1 MOL      0.159293
    158 H68         2.4990    5.1550    0.0020 h1        1 MOL      0.127667
    159 H69         1.9710    2.8500   -0.7730 hc        1 MOL      0.072856
    160 H70         0.8960    3.4520    0.5270 hc        1 MOL      0.072856
    161 H71         2.2110    2.0270    2.0580 hc        1 MOL     -0.082480
    162 H72         3.3390    1.6570    0.7940 hc        1 MOL     -0.082480
    163 N14         3.9970    4.2870    2.7240 n         1 MOL     -0.143766
    164 C55         4.0260    4.5380    4.2130 c3        1 MOL     -0.220777
    165 H73         3.5450    5.4920    4.4300 h1        1 MOL      0.100212
    166 H74         3.4940    3.7380    4.7280 h1        1 MOL      0.100212
    167 H75         5.0600    4.5660    4.5580 h1        1 MOL      0.100212
    168 H76         4.6520    3.7840    2.1430 hn        1 MOL      0.161857
    169 Ca1        -0.3180   -1.3240   -0.9200 Ca        1 MOL      1.728504
    170 O24         0.3930    0.0400   -3.2170 oh        1 MOL     -0.929912
    171 H77         1.1160    0.5700   -3.5360 ho        1 MOL      0.435807
    172 H78        -0.3800    0.3920   -3.6650 ho        1 MOL      0.435807
    173 O25        -2.0740   -1.6790    1.2690 oh        1 MOL     -0.929912
    174 H79        -3.0020   -1.6070    1.0310 ho        1 MOL      0.435807
    175 H80        -1.9790   -1.1300    2.0460 ho        1 MOL      0.435807
@<TRIPOS>BOND
     1    1    2 1   
     2    1    4 1   
     3    1    5 1   
     4    1    6 1   
     5    2    3 2   
     6    2    7 1   
     7    7    8 1   
     8    7   15 1   
     9    8    9 1   
    10    8   11 1   
    11    8   16 1   
    12    9   10 2   
    13    9   19 1   
    14   11   12 1   
    15   11   17 1   
    16   11   18 1   
    17   12   13 1   
    18   12   14 1   
    19   19   20 1   
    20   19   24 1   
    21   20   21 1   
    22   20   23 1   
    23   20   25 1   
    24   21   22 2   
    25   21   29 1   
    26   23   26 1   
    27   23   27 1   
    28   23   28 1   
    29   29   30 1   
    30   29   37 1   
    31   30   31 1   
    32   30   33 1   
    33   30   38 1   
    34   31   32 2   
    35   31   41 1   
    36   33   34 1   
    37   33   39 1   
    38   33   40 1   
    39   34   35 1   
    40   34   36 1   
    41   41   42 1   
    42   41   45 1   
    43   42   43 1   
    44   42   46 1   
    45   42   47 1   
    46   43   44 2   
    47   43   48 1   
    48   48   49 1   
    49   48   56 1   
    50   49   50 1   
    51   49   52 1   
    52   49   57 1   
    53   50   51 2   
    54   50   62 1   
    55   52   53 1   
    56   52   58 1   
    57   52   59 1   
    58   53   54 1   
    59   53   55 2   
    60   54   60 1   
    61   54   61 1   
    62   62   63 1   
    63   62   66 1   
    64   63   64 1   
    65   63   67 1   
    66   63   68 1   
    67   64   65 2   
    68   64   69 1   
    69   69   70 1   
    70   69   76 1   
    71   70   71 1   
    72   70   73 1   
    73   70   77 1   
    74   71   72 2   
    75   71   83 1   
    76   73   74 1   
    77   73   75 1   
    78   73   78 1   
    79   74   80 1   
    80   74   81 1   
    81   74   82 1   
    82   75   79 1   
    83   83   84 1   
    84   83   91 1   
    85   84   85 1   
    86   84   87 1   
    87   84   92 1   
    88   85   86 2   
    89   85  102 1   
    90   87   88 1   
    91   87   89 1   
    92   87   93 1   
    93   88   90 1   
    94   88   94 1   
    95   88   95 1   
    96   89   96 1   
    97   89   97 1   
    98   89   98 1   
    99   90   99 1   
   100   90  100 1   
   101   90  101 1   
   102  102  103 1   
   103  102  110 1   
   104  103  104 1   
   105  103  106 1   
   106  103  111 1   
   107  104  105 2   
   108  104  114 1   
   109  106  107 1   
   110  106  112 1   
   111  106  113 1   
   112  107  108 1   
   113  107  109 1   
   114  114  115 1   
   115  114  125 1   
   116  115  116 1   
   117  115  118 1   
   118  115  126 1   
   119  116  117 2   
   120  116  134 1   
   121  118  119 1   
   122  118  127 1   
   123  118  128 1   
   124  119  120 ar  
   125  119  121 ar  
   126  120  122 ar  
   127  120  129 1   
   128  121  123 ar  
   129  121  130 1   
   130  122  124 ar  
   131  122  131 1   
   132  123  124 ar  
   133  123  132 1   
   134  124  133 1   
   135  134  135 1   
   136  134  140 1   
   137  135  136 1   
   138  135  138 1   
   139  135  141 1   
   140  136  137 2   
   141  136  148 1   
   142  138  139 1   
   143  138  142 1   
   144  138  143 1   
   145  139  140 1   
   146  139  144 1   
   147  139  145 1   
   148  140  146 1   
   149  140  147 1   
   150  148  149 1   
   151  148  157 1   
   152  149  150 1   
   153  149  152 1   
   154  149  158 1   
   155  150  151 2   
   156  150  163 1   
   157  152  153 1   
   158  152  159 1   
   159  152  160 1   
   160  153  154 1   
   161  153  161 1   
   162  153  162 1   
   163  154  155 1   
   164  154  156 1   
   165  163  164 1   
   166  163  168 1   
   167  164  165 1   
   168  164  166 1   
   169  164  167 1   
   170  170  171 1   
   171  170  172 1   
   172  173  174 1   
   173  173  175 1   
@<TRIPOS>SUBSTRUCTURE
     1 MOL         1 TEMP              0 ****  ****    0 ROOT
