@<TRIPOS>MOLECULE
MOL
  184   179     1     0     0
SMALL
resp


@<TRIPOS>ATOM
      1 C1          1.4080   -3.4640    3.4200 c3        1 MOL     -0.345072
      2 C2          2.7120   -2.9110    2.7940 c         1 MOL      0.596952
      3 O1          2.7370   -2.5670    1.6400 o         1 MOL     -0.504538
      4 H1          1.6560   -4.1140    4.2590 hc        1 MOL      0.087686
      5 H2          0.7950   -2.6350    3.7730 hc        1 MOL      0.087686
      6 H3          0.8570   -4.0310    2.6710 hc        1 MOL      0.087686
      7 N1          3.8160   -2.9040    3.6230 n         1 MOL     -0.436553
      8 C3          5.0750   -2.3090    3.1650 c3        1 MOL      0.008373
      9 C4          5.7090   -3.0360    1.9940 c         1 MOL      0.487431
     10 O2          6.6540   -2.4190    1.4620 o         1 MOL     -0.546664
     11 C5          6.0940   -2.0540    4.3210 c3        1 MOL     -0.200483
     12 C6          6.2340   -3.1990    5.2770 c         1 MOL      0.752453
     13 O3          5.9520   -3.0130    6.4840 o         1 MOL     -0.741669
     14 O4          6.7120   -4.3050    4.9440 o         1 MOL     -0.741669
     15 H4          3.7370   -3.0660    4.6230 hn        1 MOL      0.263289
     16 H5          4.7530   -1.3420    2.7920 h1        1 MOL      0.082201
     17 H6          5.8540   -1.1580    4.8870 hc        1 MOL      0.048874
     18 H7          7.0920   -1.8140    3.9420 hc        1 MOL      0.048874
     19 N2          5.3900   -4.2450    1.5980 n         1 MOL     -0.350845
     20 C7          5.9990   -4.9760    0.5100 c3        1 MOL      0.277757
     21 C8          5.8450   -4.1260   -0.7950 c         1 MOL      0.430763
     22 O5          6.7530   -4.2160   -1.6200 o         1 MOL     -0.502472
     23 C9          7.4230   -5.4710    0.8330 c3        1 MOL     -0.468143
     24 H8          4.7550   -4.8240    2.1310 hn        1 MOL      0.219939
     25 H9          5.3900   -5.8370    0.2280 h1        1 MOL      0.036490
     26 H10         7.3450   -6.0490    1.7520 hc        1 MOL      0.128956
     27 H11         7.6590   -6.1230   -0.0080 hc        1 MOL      0.128956
     28 H12         8.2170   -4.7410    0.9440 hc        1 MOL      0.128956
     29 N3          4.7510   -3.3480   -0.9570 n         1 MOL     -0.421629
     30 C10         4.6660   -2.4680   -2.1570 c3        1 MOL      0.161983
     31 C11         5.8860   -1.5300   -2.3400 c         1 MOL      0.402951
     32 O6          6.2340   -1.0690   -3.4320 o         1 MOL     -0.535699
     33 C12         4.1950   -3.2020   -3.3660 c3        1 MOL     -0.128629
     34 C13         2.9970   -4.1320   -3.1460 c         1 MOL      0.719025
     35 O7          3.0870   -5.3250   -3.6080 o         1 MOL     -0.731880
     36 O8          1.9660   -3.7170   -2.5980 o         1 MOL     -0.731880
     37 H13         4.0360   -3.3310   -0.2470 hn        1 MOL      0.204550
     38 H14         3.8690   -1.7550   -1.9950 h1        1 MOL      0.025708
     39 H15         5.0440   -3.6550   -3.8680 hc        1 MOL      0.026556
     40 H16         3.7690   -2.4200   -3.9990 hc        1 MOL      0.026556
     41 N4          6.4430   -1.0260   -1.2320 n         1 MOL     -0.079681
     42 C14         7.1310    0.1690   -1.2080 c3        1 MOL     -0.358556
     43 C15         6.2930    1.3980   -1.6260 c         1 MOL      0.651781
     44 O9          6.9070    2.3940   -2.0020 o         1 MOL     -0.606545
     45 H17         6.1030   -1.3970   -0.3560 hn        1 MOL      0.141384
     46 H18         7.9130    0.1260   -1.9640 h1        1 MOL      0.148421
     47 H19         7.5180    0.3870   -0.2090 h1        1 MOL      0.148421
     48 N5          4.9490    1.4430   -1.5700 n         1 MOL     -0.320554
     49 C16         4.1840    2.4830   -2.1840 c3        1 MOL     -0.142965
     50 C17         4.1350    3.8320   -1.4720 c         1 MOL      0.524547
     51 O10         3.8780    3.9330   -0.2880 o         1 MOL     -0.530387
     52 C18         2.7920    1.8430   -2.2620 c3        1 MOL     -0.203706
     53 C19         1.8060    2.6340   -3.1850 c         1 MOL      0.603841
     54 N6          0.9040    3.4010   -2.6210 n         1 MOL     -0.718425
     55 O11         1.9470    2.5670   -4.3930 o         1 MOL     -0.594225
     56 H20         4.5390    0.6530   -1.0970 hn        1 MOL      0.241392
     57 H21         4.5810    2.6880   -3.1730 h1        1 MOL      0.113616
     58 H22         2.3710    1.9410   -1.2590 hc        1 MOL      0.123038
     59 H23         2.8340    0.8050   -2.6130 hc        1 MOL      0.123038
     60 H24         0.6720    3.3240   -1.6440 hn        1 MOL      0.335396
     61 H25         0.4110    3.9580   -3.3120 hn        1 MOL      0.335396
     62 N7          4.3660    4.9240   -2.1330 n         1 MOL     -0.168325
     63 C20         4.1290    6.2970   -1.7140 c3        1 MOL     -0.383917
     64 C21         2.6710    6.6450   -1.3200 c         1 MOL      0.494240
     65 O12         1.7440    6.4410   -2.0540 o         1 MOL     -0.474250
     66 H26         4.8630    4.8090   -3.0050 hn        1 MOL      0.235354
     67 H27         4.3720    6.9670   -2.5410 h1        1 MOL      0.149500
     68 H28         4.8220    6.4980   -0.9130 h1        1 MOL      0.149500
     69 N8          2.5210    7.4130   -0.2600 n         1 MOL     -0.200785
     70 C22         1.3470    8.0380    0.3180 c3        1 MOL     -0.460179
     71 C23         0.2270    7.1480    0.9260 c         1 MOL      0.529984
     72 O13        -0.9050    7.6160    1.1630 o         1 MOL     -0.559365
     73 C24         1.6640    9.3470    1.1550 c3        1 MOL      0.543102
     74 C25         2.3280    9.0500    2.5010 c3        1 MOL     -0.255178
     75 O14         2.6250   10.1750    0.5440 oh        1 MOL     -0.642484
     76 H29         3.4060    7.5600    0.2020 hn        1 MOL      0.210507
     77 H30         0.8320    8.3960   -0.5720 h1        1 MOL      0.180217
     78 H31         0.7750    9.9580    1.3140 h1        1 MOL      0.033638
     79 H32         3.4460    9.6800    0.5090 ho        1 MOL      0.365190
     80 H33         1.5590    8.5120    3.0620 hc        1 MOL      0.052386
     81 H34         3.1410    8.3310    2.3760 hc        1 MOL      0.052386
     82 H35         2.6070    9.9380    3.0760 hc        1 MOL      0.052386
     83 N9          0.5100    5.8450    1.1370 n         1 MOL     -0.055884
     84 C26        -0.4940    4.8870    1.5780 c3        1 MOL     -0.240640
     85 C27        -0.4580    3.6290    0.6490 c         1 MOL      0.401756
     86 O15         0.6410    3.3180    0.1330 o         1 MOL     -0.443575
     87 C28        -0.4900    4.5080    3.0670 c3        1 MOL      0.113533
     88 C29         0.7130    3.6040    3.3800 c3        1 MOL      0.015362
     89 C30        -0.4130    5.8200    3.8540 c3        1 MOL     -0.277814
     90 C31         0.6120    2.8480    4.7740 c3        1 MOL     -0.206023
     91 H36         1.4830    5.5750    1.1470 hn        1 MOL      0.189323
     92 H37        -1.4800    5.3010    1.3660 h1        1 MOL      0.130627
     93 H38        -1.4240    4.0560    3.3870 hc        1 MOL      0.036440
     94 H39         1.5980    4.2300    3.3500 hc        1 MOL      0.039163
     95 H40         0.8450    2.8270    2.6260 hc        1 MOL      0.039163
     96 H41         0.5120    6.3140    3.5620 hc        1 MOL      0.063125
     97 H42        -1.2460    6.4390    3.5070 hc        1 MOL      0.063125
     98 H43        -0.4220    5.6570    4.9330 hc        1 MOL      0.063125
     99 H44         0.1330    1.8840    4.6930 hc        1 MOL      0.055082
    100 H45         1.6560    2.7390    5.0750 hc        1 MOL      0.055082
    101 H46         0.0670    3.5040    5.4560 hc        1 MOL      0.055082
    102 N10        -1.5310    2.9080    0.4200 n         1 MOL     -0.332059
    103 C32        -1.5710    1.7250   -0.4260 c3        1 MOL      0.052108
    104 C33        -2.9940    1.2900   -0.9650 c         1 MOL      0.399986
    105 O16        -3.1760    0.7780   -2.0490 o         1 MOL     -0.525737
    106 C34        -1.0790    0.5950    0.5430 c3        1 MOL     -0.377129
    107 C35        -0.9030   -0.6240   -0.3860 c         1 MOL      0.850620
    108 O17        -1.8950   -1.3240   -0.7340 o         1 MOL     -0.759523
    109 O18         0.1320   -0.9790   -0.8960 o         1 MOL     -0.759523
    110 H47        -2.4060    3.1590    0.8670 hn        1 MOL      0.225924
    111 H48        -0.8350    1.6070   -1.2190 h1        1 MOL      0.104979
    112 H49        -1.7900    0.2280    1.2740 hc        1 MOL      0.115549
    113 H50        -0.1130    0.8840    0.9590 hc        1 MOL      0.115549
    114 N11        -4.1070    1.3780   -0.1990 n         1 MOL     -0.318930
    115 C36        -5.5080    1.0430   -0.6230 c3        1 MOL      0.246374
    116 C37        -6.1680   -0.0770    0.2720 c         1 MOL      0.206666
    117 O19        -5.9860   -0.0150    1.4400 o         1 MOL     -0.425444
    118 C38        -6.3090    2.3510   -0.5460 c3        1 MOL     -0.263337
    119 C39        -7.8030    2.1660   -0.7610 ca        1 MOL      0.142891
    120 C40        -8.2150    2.1080   -2.1350 ca        1 MOL     -0.151557
    121 C41        -8.7360    2.1390    0.1870 ca        1 MOL     -0.151557
    122 C42        -9.5480    1.9380   -2.4460 ca        1 MOL     -0.113406
    123 C43       -10.1130    2.0390   -0.0970 ca        1 MOL     -0.113406
    124 C44       -10.5150    1.8880   -1.4380 ca        1 MOL     -0.145647
    125 H51        -4.0610    1.9120    0.6570 hn        1 MOL      0.255540
    126 H52        -5.6280    0.7570   -1.6660 h1        1 MOL      0.064962
    127 H53        -5.8380    3.1080   -1.1660 hc        1 MOL      0.076627
    128 H54        -6.2160    2.7950    0.4470 hc        1 MOL      0.076627
    129 H55        -7.5670    2.3380   -2.9680 ha        1 MOL      0.121566
    130 H56        -8.4510    2.2450    1.2260 ha        1 MOL      0.121566
    131 H57        -9.8370    1.8870   -3.4870 ha        1 MOL      0.113917
    132 H58       -10.8870    2.0490    0.6680 ha        1 MOL      0.113917
    133 H59       -11.5790    1.8870   -1.6230 ha        1 MOL      0.117057
    134 N12        -6.9280   -1.0390   -0.2780 n         1 MOL      0.073068
    135 C45        -7.7710   -1.8820    0.5840 c3        1 MOL     -0.069830
    136 C46        -7.0090   -2.7550    1.5900 c         1 MOL      0.348221
    137 O20        -7.5580   -3.1010    2.5750 o         1 MOL     -0.511196
    138 C47        -8.6210   -2.7800   -0.3510 c3        1 MOL      0.092598
    139 C48        -8.8900   -1.8100   -1.4730 c3        1 MOL      0.002185
    140 C49        -7.3710   -1.2360   -1.6430 c3        1 MOL     -0.334085
    141 H60        -8.4470   -1.3010    1.2140 h1        1 MOL      0.080618
    142 H61        -7.9710   -3.6020   -0.6640 hc        1 MOL      0.003567
    143 H62        -9.5440   -3.2210    0.0320 hc        1 MOL      0.003567
    144 H63        -9.2810   -2.3540   -2.3320 hc        1 MOL      0.028237
    145 H64        -9.5940   -1.0220   -1.1970 hc        1 MOL      0.028237
    146 H65        -6.6180   -1.8860   -2.0820 h1        1 MOL      0.122559
    147 H66        -7.4240   -0.3260   -2.2420 h1        1 MOL      0.122559
    148 N13        -5.7430   -3.0160    1.3710 n         1 MOL     -0.089384
    149 C50        -4.8710   -3.7270    2.3080 c3        1 MOL     -0.336655
    150 C51        -4.4070   -2.8710    3.5270 c         1 MOL      0.469060
    151 O21        -4.1050   -3.5100    4.5490 o         1 MOL     -0.529501
    152 C52        -3.6890   -4.4650    1.5080 c3        1 MOL      0.023996
    153 C53        -4.1440   -5.1680    0.2310 c3        1 MOL     -0.085989
    154 C54        -2.7810   -5.4220   -0.5090 c         1 MOL      0.710432
    155 O22        -2.1470   -6.4670   -0.2920 o         1 MOL     -0.734873
    156 O23        -2.3160   -4.4820   -1.1740 o         1 MOL     -0.734873
    157 H67        -5.3310   -2.8220    0.4730 hn        1 MOL      0.233694
    158 H68        -5.5690   -4.4510    2.7340 h1        1 MOL      0.171088
    159 H69        -3.1030   -5.1170    2.1420 hc        1 MOL      0.060941
    160 H70        -3.0800   -3.6410    1.1330 hc        1 MOL      0.060941
    161 H71        -4.7760   -4.5530   -0.4060 hc        1 MOL     -0.010074
    162 H72        -4.6020   -6.1510    0.3580 hc        1 MOL     -0.010074
    163 N14        -4.5660   -1.5450    3.3960 n         1 MOL     -0.092956
    164 C55        -4.4110   -0.5490    4.4640 c3        1 MOL     -0.274933
    165 H73        -5.3950   -0.2200    4.7990 h1        1 MOL      0.103015
    166 H74        -3.8730   -0.9940    5.3010 h1        1 MOL      0.103015
    167 H75        -3.8520    0.3070    4.0860 h1        1 MOL      0.103015
    168 H76        -4.8420   -1.1080    2.5200 hn        1 MOL      0.121588
    169 Ca1        -0.4170   -3.1230   -2.1850 Ca        1 MOL      1.776290
    170 O24        -1.3360   -3.7900   -4.4960 oh        1 MOL     -0.825332
    171 H77        -1.2320   -3.2870   -5.2960 ho        1 MOL      0.399541
    172 H78        -2.1330   -4.3170   -4.6470 ho        1 MOL      0.399541
    173 O25        -1.8430   -1.2410   -3.6110 oh        1 MOL     -0.825332
    174 H79        -2.4380   -0.8330   -2.9930 ho        1 MOL      0.399541
    175 H80        -1.2660   -0.5310   -3.8960 ho        1 MOL      0.399541
    176 O26         0.8260   -1.7410   -4.2450 oh        1 MOL     -0.825332
    177 H81         1.0670   -2.3760   -4.9200 ho        1 MOL      0.399541
    178 H82         0.6690   -0.9260   -4.7320 ho        1 MOL      0.399541
    179 O27         0.1330   -3.9660    0.2760 oh        1 MOL     -0.825332
    180 H83        -0.4510   -4.5720    0.7470 ho        1 MOL      0.399541
    181 H84         1.0070   -4.3480    0.3730 ho        1 MOL      0.399541
    182 O28        -0.2500   -5.7140   -2.3220 oh        1 MOL     -0.825332
    183 H85        -0.9080   -6.0350   -1.7070 ho        1 MOL      0.399541
    184 H86         0.5360   -6.2130   -2.1170 ho        1 MOL      0.399541
@<TRIPOS>BOND
     1    1    2 1   
     2    1    4 1   
     3    1    5 1   
     4    1    6 1   
     5    2    3 2   
     6    2    7 1   
     7    7    8 1   
     8    7   15 1   
     9    8    9 1   
    10    8   11 1   
    11    8   16 1   
    12    9   10 2   
    13    9   19 1   
    14   11   12 1   
    15   11   17 1   
    16   11   18 1   
    17   12   13 1   
    18   12   14 1   
    19   19   20 1   
    20   19   24 1   
    21   20   21 1   
    22   20   23 1   
    23   20   25 1   
    24   21   22 2   
    25   21   29 1   
    26   23   26 1   
    27   23   27 1   
    28   23   28 1   
    29   29   30 1   
    30   29   37 1   
    31   30   31 1   
    32   30   33 1   
    33   30   38 1   
    34   31   32 2   
    35   31   41 1   
    36   33   34 1   
    37   33   39 1   
    38   33   40 1   
    39   34   35 1   
    40   34   36 1   
    41   41   42 1   
    42   41   45 1   
    43   42   43 1   
    44   42   46 1   
    45   42   47 1   
    46   43   44 2   
    47   43   48 1   
    48   48   49 1   
    49   48   56 1   
    50   49   50 1   
    51   49   52 1   
    52   49   57 1   
    53   50   51 2   
    54   50   62 1   
    55   52   53 1   
    56   52   58 1   
    57   52   59 1   
    58   53   54 1   
    59   53   55 2   
    60   54   60 1   
    61   54   61 1   
    62   62   63 1   
    63   62   66 1   
    64   63   64 1   
    65   63   67 1   
    66   63   68 1   
    67   64   65 2   
    68   64   69 1   
    69   69   70 1   
    70   69   76 1   
    71   70   71 1   
    72   70   73 1   
    73   70   77 1   
    74   71   72 2   
    75   71   83 1   
    76   73   74 1   
    77   73   75 1   
    78   73   78 1   
    79   74   80 1   
    80   74   81 1   
    81   74   82 1   
    82   75   79 1   
    83   83   84 1   
    84   83   91 1   
    85   84   85 1   
    86   84   87 1   
    87   84   92 1   
    88   85   86 2   
    89   85  102 1   
    90   87   88 1   
    91   87   89 1   
    92   87   93 1   
    93   88   90 1   
    94   88   94 1   
    95   88   95 1   
    96   89   96 1   
    97   89   97 1   
    98   89   98 1   
    99   90   99 1   
   100   90  100 1   
   101   90  101 1   
   102  102  103 1   
   103  102  110 1   
   104  103  104 1   
   105  103  106 1   
   106  103  111 1   
   107  104  105 2   
   108  104  114 1   
   109  106  107 1   
   110  106  112 1   
   111  106  113 1   
   112  107  108 1   
   113  107  109 1   
   114  114  115 1   
   115  114  125 1   
   116  115  116 1   
   117  115  118 1   
   118  115  126 1   
   119  116  117 2   
   120  116  134 1   
   121  118  119 1   
   122  118  127 1   
   123  118  128 1   
   124  119  120 ar  
   125  119  121 ar  
   126  120  122 ar  
   127  120  129 1   
   128  121  123 ar  
   129  121  130 1   
   130  122  124 ar  
   131  122  131 1   
   132  123  124 ar  
   133  123  132 1   
   134  124  133 1   
   135  134  135 1   
   136  134  140 1   
   137  135  136 1   
   138  135  138 1   
   139  135  141 1   
   140  136  137 2   
   141  136  148 1   
   142  138  139 1   
   143  138  142 1   
   144  138  143 1   
   145  139  140 1   
   146  139  144 1   
   147  139  145 1   
   148  140  146 1   
   149  140  147 1   
   150  148  149 1   
   151  148  157 1   
   152  149  150 1   
   153  149  152 1   
   154  149  158 1   
   155  150  151 2   
   156  150  163 1   
   157  152  153 1   
   158  152  159 1   
   159  152  160 1   
   160  153  154 1   
   161  153  161 1   
   162  153  162 1   
   163  154  155 1   
   164  154  156 1   
   165  163  164 1   
   166  163  168 1   
   167  164  165 1   
   168  164  166 1   
   169  164  167 1   
   170  170  171 1   
   171  170  172 1   
   172  173  174 1   
   173  173  175 1   
   174  176  177 1   
   175  176  178 1   
   176  179  180 1   
   177  179  181 1   
   178  182  183 1   
   179  182  184 1   
@<TRIPOS>SUBSTRUCTURE
     1 MOL         1 TEMP              0 ****  ****    0 ROOT
