@<TRIPOS>MOLECULE
MOL
  188   182     1     0     0
SMALL
resp


@<TRIPOS>ATOM
      1 C1         -4.5910    2.9180   -2.5290 c3        1 MOL     -0.392612
      2 C2         -5.5390    2.2180   -1.5710 c         1 MOL      0.702005
      3 O1         -5.2060    1.3400   -0.8240 o         1 MOL     -0.536728
      4 H1         -3.5660    2.7850   -2.1870 hc        1 MOL      0.102012
      5 H2         -4.6990    2.4900   -3.5260 hc        1 MOL      0.102012
      6 H3         -4.8270    3.9820   -2.5630 hc        1 MOL      0.102012
      7 N1         -6.8250    2.5640   -1.6650 n         1 MOL     -0.668305
      8 C3         -7.9280    2.1940   -0.8220 c3        1 MOL      0.230408
      9 C4         -8.1490    0.7050   -0.6430 c         1 MOL      0.526341
     10 O2         -8.6170    0.2820    0.4200 o         1 MOL     -0.501346
     11 C5         -7.7970    3.0210    0.4820 c3        1 MOL     -0.385530
     12 C6         -7.6470    4.5900    0.4000 c         1 MOL      0.802325
     13 O3         -6.5930    5.1680    0.7280 o         1 MOL     -0.689595
     14 O4         -8.5950    5.3140    0.0540 o         1 MOL     -0.689595
     15 H4         -7.0130    3.2630   -2.3730 hn        1 MOL      0.330001
     16 H5         -8.8220    2.5410   -1.3420 h1        1 MOL     -0.004946
     17 H6         -7.0800    2.5890    1.1780 hc        1 MOL      0.093470
     18 H7         -8.7480    2.8240    0.9890 hc        1 MOL      0.093470
     19 N2         -7.7830   -0.1570   -1.6310 n         1 MOL     -0.519147
     20 C7         -7.9560   -1.6100   -1.5150 c3        1 MOL      0.197306
     21 C8         -6.6890   -2.3800   -1.3600 c         1 MOL      0.520596
     22 O5         -6.6660   -3.5980   -1.4920 o         1 MOL     -0.566060
     23 C9         -8.8160   -2.0740   -2.7220 c3        1 MOL     -0.211783
     24 C10       -10.2710   -1.6090   -2.5650 c3        1 MOL      0.121098
     25 C11       -10.8540   -1.5440   -3.9740 c3        1 MOL     -0.225948
     26 C12       -12.2470   -0.9040   -3.9730 c3        1 MOL     -0.067779
     27 N3        -12.1550    0.5750   -3.9950 n4        1 MOL     -0.364077
     28 H8         -7.4500    0.1950   -2.5140 hn        1 MOL      0.271163
     29 H9         -8.4620   -1.8170   -0.5620 h1        1 MOL      0.083855
     30 H10        -8.7930   -3.1630   -2.8320 hc        1 MOL      0.070072
     31 H11        -8.4410   -1.5530   -3.6050 hc        1 MOL      0.070072
     32 H12       -10.2820   -0.5930   -2.1780 hc        1 MOL      0.013609
     33 H13       -10.7900   -2.3310   -1.9280 hc        1 MOL      0.013609
     34 H14       -10.9990   -2.5220   -4.4550 hc        1 MOL      0.099005
     35 H15       -10.3600   -1.0640   -4.8120 hc        1 MOL      0.099005
     36 H16       -12.8920   -1.3360   -3.2100 hx        1 MOL      0.126498
     37 H17       -12.7030   -1.2170   -4.9170 hx        1 MOL      0.126498
     38 H18       -11.8150    0.9460   -4.8680 hn        1 MOL      0.293356
     39 H19       -13.0490    0.9900   -3.7670 hn        1 MOL      0.293356
     40 H20       -11.5730    0.8160   -3.2090 hn        1 MOL      0.293356
     41 N4         -5.6030   -1.6870   -1.0650 n         1 MOL     -0.573953
     42 C13        -4.3840   -2.3410   -0.4900 c3        1 MOL      0.358810
     43 C14        -4.6700   -2.8590    0.9120 c         1 MOL      0.453194
     44 O6         -5.5750   -2.3810    1.5780 o         1 MOL     -0.475593
     45 C15        -3.1960   -1.4220   -0.5200 c3        1 MOL     -0.477677
     46 C16        -2.0060   -2.0770    0.0970 c         1 MOL      0.805977
     47 O7         -1.3630   -3.0070   -0.4780 o         1 MOL     -0.704289
     48 O8         -1.5760   -1.6280    1.1710 o         1 MOL     -0.704289
     49 H21        -5.7620   -0.6960   -0.9390 hn        1 MOL      0.331402
     50 H22        -4.0700   -3.2770   -0.9530 h1        1 MOL      0.009573
     51 H23        -3.4140   -0.4910    0.0080 hc        1 MOL      0.105466
     52 H24        -2.9130   -1.1740   -1.5490 hc        1 MOL      0.105466
     53 N5         -3.9430   -3.7750    1.5310 n         1 MOL     -0.410094
     54 C17        -4.3130   -4.1060    2.9540 c3        1 MOL      0.000969
     55 C18        -3.9830   -2.9520    3.9690 c         1 MOL      0.446697
     56 O9         -4.9190   -2.6640    4.7350 o         1 MOL     -0.522314
     57 H25        -3.2070   -4.2620    1.0470 hn        1 MOL      0.281518
     58 H26        -3.8470   -5.0300    3.3050 h1        1 MOL      0.075276
     59 H27        -5.3750   -4.3200    3.0310 h1        1 MOL      0.075276
     60 N6         -2.7890   -2.4210    4.0680 n         1 MOL     -0.390037
     61 C19        -2.5230   -1.2810    4.9100 c3        1 MOL      0.176304
     62 C20        -2.6070    0.1650    4.3330 c         1 MOL      0.417470
     63 O10        -2.9760    1.0800    5.0680 o         1 MOL     -0.535576
     64 C21        -1.1270   -1.5340    5.5440 c3        1 MOL     -0.249175
     65 C22         0.0530   -1.1120    4.6400 c         1 MOL      0.708766
     66 N7          1.0280   -0.3810    5.1620 n         1 MOL     -0.797351
     67 O11         0.1750   -1.6520    3.5470 o         1 MOL     -0.689200
     68 H28        -2.1160   -2.7110    3.3720 hn        1 MOL      0.217267
     69 H29        -3.2790   -1.2980    5.6940 h1        1 MOL      0.086506
     70 H30        -0.8520   -2.5590    5.7720 hc        1 MOL      0.073797
     71 H31        -1.1450   -0.9960    6.4900 hc        1 MOL      0.073797
     72 H32         1.0530   -0.2090    6.1580 hn        1 MOL      0.373499
     73 H33         1.7290   -0.0840    4.5100 hn        1 MOL      0.373499
     74 N8         -2.4930    0.3040    2.9820 n         1 MOL     -0.052370
     75 C23        -2.5310    1.5510    2.3460 c3        1 MOL     -0.329918
     76 C24        -1.0910    2.1550    2.0850 c         1 MOL      0.704631
     77 O12        -0.0720    1.5460    2.5820 o         1 MOL     -0.594812
     78 H34        -2.1660   -0.4860    2.4330 hn        1 MOL      0.157448
     79 H35        -3.2550    2.1980    2.8350 h1        1 MOL      0.163774
     80 H36        -2.9270    1.3210    1.3650 h1        1 MOL      0.163774
     81 N9         -1.0200    3.1770    1.2340 n         1 MOL     -0.695680
     82 C25         0.2240    3.7290    0.6880 c3        1 MOL      0.414948
     83 C26         1.0830    2.8140   -0.2180 c         1 MOL      0.362212
     84 O13         0.5980    1.8210   -0.8040 o         1 MOL     -0.516427
     85 C27        -0.1490    5.0610   -0.0270 c3        1 MOL     -0.234536
     86 C28         1.0630    5.9110   -0.2920 ca        1 MOL      0.045161
     87 C29         1.5800    6.7470    0.7410 ca        1 MOL     -0.156189
     88 C30         1.6080    6.1000   -1.5940 ca        1 MOL     -0.156189
     89 C31         2.6220    7.7140    0.4420 ca        1 MOL     -0.232264
     90 C32         2.5330    7.0990   -1.8690 ca        1 MOL     -0.232264
     91 C33         3.0740    7.8360   -0.8740 ca        1 MOL      0.331023
     92 O14         4.1240    8.6690   -1.0820 oh        1 MOL     -0.515437
     93 H37        -1.8370    3.6110    0.8220 hn        1 MOL      0.356013
     94 H38         0.7930    3.9530    1.5820 h1        1 MOL      0.006197
     95 H39        -0.8700    5.5750    0.6240 hc        1 MOL      0.106616
     96 H40        -0.7330    4.8210   -0.9190 hc        1 MOL      0.106616
     97 H41         1.1840    6.5510    1.7260 ha        1 MOL      0.133910
     98 H42         1.1870    5.5440   -2.4140 ha        1 MOL      0.133910
     99 H43         3.1230    8.2330    1.2540 ha        1 MOL      0.150922
    100 H44         2.9500    7.2500   -2.8620 ha        1 MOL      0.150922
    101 H45         4.3560    8.8370   -2.0000 ho        1 MOL      0.386438
    102 N10         2.3850    2.8480   -0.1380 n         1 MOL     -0.277666
    103 C34         3.3610    1.9420   -0.8450 c3        1 MOL     -0.265755
    104 C35         4.4960    1.5700    0.1400 c         1 MOL      0.239598
    105 O15         4.9570    0.4040    0.1000 o         1 MOL     -0.311589
    106 C36         3.9940    2.6290   -2.0570 c3        1 MOL      0.395893
    107 C37         2.9320    3.0680   -3.1220 c3        1 MOL     -0.366195
    108 C38         5.0100    1.7700   -2.7810 c3        1 MOL     -0.620722
    109 C39         3.3650    3.9910   -4.2930 c3        1 MOL      0.001500
    110 H46         2.8900    3.4710    0.4690 hn        1 MOL      0.147061
    111 H47         2.9300    1.0060   -1.2010 h1        1 MOL      0.146238
    112 H48         4.5250    3.4900   -1.6340 hc        1 MOL     -0.063130
    113 H49         2.2480    3.6850   -2.5350 hc        1 MOL      0.157311
    114 H50         2.4460    2.2170   -3.5950 hc        1 MOL      0.157311
    115 H51         5.9050    1.5680   -2.1950 hc        1 MOL      0.173103
    116 H52         4.5290    0.8630   -3.1300 hc        1 MOL      0.173103
    117 H53         5.3090    2.4010   -3.6170 hc        1 MOL      0.173103
    118 H54         2.5530    4.6440   -4.6460 hc        1 MOL      0.002560
    119 H55         4.0930    4.6940   -3.8770 hc        1 MOL      0.002560
    120 H56         3.8430    3.4120   -5.0840 hc        1 MOL      0.002560
    121 N11         4.9580    2.5110    0.9750 n         1 MOL     -0.236053
    122 C40         6.1410    2.2010    1.8230 c3        1 MOL      0.124484
    123 C41         7.2590    1.2570    1.2380 c         1 MOL      0.213805
    124 O16         7.6580    0.3440    1.9270 o         1 MOL     -0.456782
    125 C42         6.7830    3.5200    2.1590 c3        1 MOL      0.210577
    126 O17         5.8690    4.5150    2.6100 oh        1 MOL     -0.642703
    127 H57         4.7780    3.4610    0.6780 hn        1 MOL      0.300689
    128 H58         5.7360    1.7520    2.7280 h1        1 MOL      0.075659
    129 H59         7.4130    3.8640    1.3400 h1        1 MOL     -0.005868
    130 H60         7.4110    3.3400    3.0420 h1        1 MOL     -0.005868
    131 H61         6.4030    5.2080    3.0250 ho        1 MOL      0.429972
    132 N12         7.6320    1.5600   -0.0050 n         1 MOL     -0.131685
    133 C43         8.6840    0.9010   -0.8090 c3        1 MOL      0.305745
    134 C44         8.6220   -0.6320   -0.8890 c         1 MOL      0.330532
    135 O18         9.6740   -1.2250   -1.1530 o         1 MOL     -0.514845
    136 C45         9.9850    1.5310   -0.4000 c3        1 MOL     -0.506072
    137 H62         7.2050    2.3850   -0.3910 hn        1 MOL      0.176450
    138 H63         8.4440    1.1920   -1.8380 h1        1 MOL      0.004636
    139 H64        10.2320    1.2430    0.6250 hc        1 MOL      0.136101
    140 H65        10.7340    1.2110   -1.1270 hc        1 MOL      0.136101
    141 H66         9.8680    2.6180   -0.3310 hc        1 MOL      0.136101
    142 N13         7.4440   -1.1890   -0.5990 n         1 MOL     -0.087876
    143 C46         7.2750   -2.6330   -0.4630 c3        1 MOL      0.347970
    144 C47         6.1550   -3.0820   -1.4960 c         1 MOL      0.002952
    145 O19         5.3120   -2.2420   -1.9260 o         1 MOL     -0.325411
    146 C48         6.9520   -3.0020    0.9340 c3        1 MOL     -0.101034
    147 H67         6.6010   -0.6350   -0.5920 hn        1 MOL     -0.045745
    148 H68         8.2750   -3.0150   -0.6680 h1        1 MOL     -0.007394
    149 H69         7.5810   -2.4160    1.6000 hc        1 MOL      0.029329
    150 H70         5.8850   -2.8340    1.1120 hc        1 MOL      0.029329
    151 H71         7.1050   -4.0670    1.0700 hc        1 MOL      0.029329
    152 N14         6.0550   -4.3780   -1.8430 n         1 MOL     -0.159948
    153 C49         5.0900   -5.0880   -2.6270 c3        1 MOL     -0.016124
    154 C50         4.9690   -4.5740   -4.0800 c         1 MOL      0.323709
    155 O20         3.8340   -4.6080   -4.6610 o         1 MOL     -0.477281
    156 C51         3.7040   -5.1800   -1.9960 c3        1 MOL      0.293705
    157 C52         3.6180   -5.7340   -0.5570 c3        1 MOL     -0.493822
    158 C53         2.2110   -5.3820   -0.0450 c         1 MOL      0.919582
    159 O21         1.6990   -5.9570    0.9550 o         1 MOL     -0.763733
    160 O22         1.5260   -4.4300   -0.5330 o         1 MOL     -0.763733
    161 H72         6.8320   -4.9210   -1.5110 hn        1 MOL      0.218509
    162 H73         5.4320   -6.1250   -2.6610 h1        1 MOL      0.039113
    163 H74         3.1180   -5.8800   -2.6040 hc        1 MOL     -0.014401
    164 H75         3.3420   -4.1590   -2.0210 hc        1 MOL     -0.014401
    165 H76         4.3840   -5.3240    0.1120 hc        1 MOL      0.088756
    166 H77         3.7440   -6.8170   -0.5990 hc        1 MOL      0.088756
    167 N15         6.0330   -4.0710   -4.6400 n         1 MOL     -0.192046
    168 C54         6.0400   -3.2610   -5.8200 c3        1 MOL     -0.146797
    169 H78         7.0420   -3.2540   -6.2490 h1        1 MOL      0.086401
    170 H79         5.3370   -3.6700   -6.5460 h1        1 MOL      0.086401
    171 H80         5.7470   -2.2430   -5.5630 h1        1 MOL      0.086401
    172 H81         6.9440   -4.2840   -4.2660 hn        1 MOL      0.208380
    173 Ca1         0.9790   -2.4270    0.9660 Ca        1 MOL      1.754281
    174 O23         2.0790    0.2840    1.4720 oh        1 MOL     -0.807719
    175 H82         2.5620    0.3810    2.2980 ho        1 MOL      0.393515
    176 H83         1.3380    0.8760    1.5550 ho        1 MOL      0.393515
    177 O24         3.4970   -2.2100    0.1710 oh        1 MOL     -0.807719
    178 H84         3.9010   -2.1900   -0.6930 ho        1 MOL      0.393515
    179 H85         3.7620   -1.3900    0.5890 ho        1 MOL      0.393515
    180 O25         0.9590   -0.9440   -1.1550 oh        1 MOL     -0.807719
    181 H86         0.3330   -1.0660   -1.8690 ho        1 MOL      0.393515
    182 H87         1.0740   -0.0030   -1.0870 ho        1 MOL      0.393515
    183 O26        -0.0270   -4.5480    2.2910 oh        1 MOL     -0.807719
    184 H88        -0.1670   -4.5860    3.2420 ho        1 MOL      0.393515
    185 H89         0.6620   -5.1900    2.1210 ho        1 MOL      0.393515
    186 O27         2.7750   -3.1530    2.7770 oh        1 MOL     -0.807719
    187 H90         3.6220   -3.5820    2.6930 ho        1 MOL      0.393515
    188 H91         2.8410   -2.6300    3.5710 ho        1 MOL      0.393515
@<TRIPOS>BOND
     1    1    2 1   
     2    1    4 1   
     3    1    5 1   
     4    1    6 1   
     5    2    3 2   
     6    2    7 1   
     7    7    8 1   
     8    7   15 1   
     9    8    9 1   
    10    8   11 1   
    11    8   16 1   
    12    9   10 2   
    13    9   19 1   
    14   11   12 1   
    15   11   17 1   
    16   11   18 1   
    17   12   13 1   
    18   12   14 1   
    19   19   20 1   
    20   19   28 1   
    21   20   21 1   
    22   20   23 1   
    23   20   29 1   
    24   21   22 2   
    25   21   41 1   
    26   23   24 1   
    27   23   30 1   
    28   23   31 1   
    29   24   25 1   
    30   24   32 1   
    31   24   33 1   
    32   25   26 1   
    33   25   34 1   
    34   25   35 1   
    35   26   27 1   
    36   26   36 1   
    37   26   37 1   
    38   27   38 1   
    39   27   39 1   
    40   27   40 1   
    41   41   42 1   
    42   41   49 1   
    43   42   43 1   
    44   42   45 1   
    45   42   50 1   
    46   43   44 2   
    47   43   53 1   
    48   45   46 1   
    49   45   51 1   
    50   45   52 1   
    51   46   47 1   
    52   46   48 1   
    53   53   54 1   
    54   53   57 1   
    55   54   55 1   
    56   54   58 1   
    57   54   59 1   
    58   55   56 2   
    59   55   60 1   
    60   60   61 1   
    61   60   68 1   
    62   61   62 1   
    63   61   64 1   
    64   61   69 1   
    65   62   63 2   
    66   62   74 1   
    67   64   65 1   
    68   64   70 1   
    69   64   71 1   
    70   65   66 1   
    71   65   67 2   
    72   66   72 1   
    73   66   73 1   
    74   74   75 1   
    75   74   78 1   
    76   75   76 1   
    77   75   79 1   
    78   75   80 1   
    79   76   77 2   
    80   76   81 1   
    81   81   82 1   
    82   81   93 1   
    83   82   83 1   
    84   82   85 1   
    85   82   94 1   
    86   83   84 2   
    87   83  102 1   
    88   85   86 1   
    89   85   95 1   
    90   85   96 1   
    91   86   87 ar  
    92   86   88 ar  
    93   87   89 ar  
    94   87   97 1   
    95   88   90 ar  
    96   88   98 1   
    97   89   91 ar  
    98   89   99 1   
    99   90   91 ar  
   100   90  100 1   
   101   91   92 1   
   102   92  101 1   
   103  102  103 1   
   104  102  110 1   
   105  103  104 1   
   106  103  106 1   
   107  103  111 1   
   108  104  105 2   
   109  104  121 1   
   110  106  107 1   
   111  106  108 1   
   112  106  112 1   
   113  107  109 1   
   114  107  113 1   
   115  107  114 1   
   116  108  115 1   
   117  108  116 1   
   118  108  117 1   
   119  109  118 1   
   120  109  119 1   
   121  109  120 1   
   122  121  122 1   
   123  121  127 1   
   124  122  123 1   
   125  122  125 1   
   126  122  128 1   
   127  123  124 2   
   128  123  132 1   
   129  125  126 1   
   130  125  129 1   
   131  125  130 1   
   132  126  131 1   
   133  132  133 1   
   134  132  137 1   
   135  133  134 1   
   136  133  136 1   
   137  133  138 1   
   138  134  135 2   
   139  134  142 1   
   140  136  139 1   
   141  136  140 1   
   142  136  141 1   
   143  142  143 1   
   144  142  147 1   
   145  143  144 1   
   146  143  146 1   
   147  143  148 1   
   148  144  145 2   
   149  144  152 1   
   150  146  149 1   
   151  146  150 1   
   152  146  151 1   
   153  152  153 1   
   154  152  161 1   
   155  153  154 1   
   156  153  156 1   
   157  153  162 1   
   158  154  155 2   
   159  154  167 1   
   160  156  157 1   
   161  156  163 1   
   162  156  164 1   
   163  157  158 1   
   164  157  165 1   
   165  157  166 1   
   166  158  159 1   
   167  158  160 1   
   168  167  168 1   
   169  167  172 1   
   170  168  169 1   
   171  168  170 1   
   172  168  171 1   
   173  174  175 1   
   174  174  176 1   
   175  177  178 1   
   176  177  179 1   
   177  180  181 1   
   178  180  182 1   
   179  183  184 1   
   180  183  185 1   
   181  186  187 1   
   182  186  188 1   
@<TRIPOS>SUBSTRUCTURE
     1 MOL         1 TEMP              0 ****  ****    0 ROOT
