@<TRIPOS>MOLECULE
MOL
  181   177     1     0     0
SMALL
resp


@<TRIPOS>ATOM
      1 C1          4.6510   -1.5170    3.9000 c3        1 MOL     -0.237331
      2 C2          5.7510   -0.8690    3.1340 c         1 MOL      0.700352
      3 O1          5.6090   -0.6940    1.9140 o         1 MOL     -0.565168
      4 H1          4.8940   -2.5670    4.0660 hc        1 MOL      0.063957
      5 H2          4.5330   -1.0160    4.8620 hc        1 MOL      0.063957
      6 H3          3.7230   -1.4440    3.3350 hc        1 MOL      0.063957
      7 N1          6.9170   -0.6160    3.7880 n         1 MOL     -0.537565
      8 C3          8.0630   -0.0310    3.0950 c3        1 MOL      0.035739
      9 C4          8.6010   -0.8520    1.9340 c         1 MOL      0.772170
     10 O2          8.7830   -2.0280    2.0980 o         1 MOL     -0.576251
     11 C5          9.1480    0.4080    4.0670 c3        1 MOL     -0.169629
     12 C6          8.6120    0.6950    5.4780 c         1 MOL      0.767490
     13 O3          9.1170    0.0390    6.4270 o         1 MOL     -0.746371
     14 O4          7.8990    1.6980    5.6540 o         1 MOL     -0.746371
     15 H4          6.9090   -0.8110    4.7790 hn        1 MOL      0.305430
     16 H5          7.6810    0.8760    2.6370 h1        1 MOL      0.006938
     17 H6          9.7670    1.2300    3.6990 hc        1 MOL      0.019234
     18 H7          9.8260   -0.4450    4.1760 hc        1 MOL      0.019234
     19 N2          8.8990   -0.2310    0.7530 n         1 MOL     -0.814633
     20 C7          9.2650   -0.9500   -0.4900 c3        1 MOL      0.460121
     21 C8          8.0540   -1.3540   -1.3980 c         1 MOL      0.143598
     22 O5          8.3270   -1.7560   -2.5100 o         1 MOL     -0.490648
     23 C9         10.1750    0.0640   -1.1720 c3        1 MOL     -0.245436
     24 H8          8.8670    0.7740    0.7840 hn        1 MOL      0.340416
     25 H9          9.9380   -1.7810   -0.2900 h1        1 MOL      0.027022
     26 H10        10.9750    0.3750   -0.5000 hc        1 MOL      0.054126
     27 H11        10.6320   -0.3760   -2.0540 hc        1 MOL      0.054126
     28 H12         9.5800    0.9140   -1.5140 hc        1 MOL      0.054126
     29 N3          6.8030   -1.1560   -0.9310 n         1 MOL     -0.044753
     30 C10         5.5060   -1.3190   -1.5850 c3        1 MOL      0.271301
     31 C11         5.3150   -0.3750   -2.7930 c         1 MOL      0.374333
     32 O6          4.7530   -0.8170   -3.7530 o         1 MOL     -0.439277
     33 C12         5.2900   -2.7940   -1.8660 c3        1 MOL     -0.224291
     34 C13         3.8020   -3.1930   -2.0520 c         1 MOL      0.603769
     35 O7          3.4430   -4.0120   -2.9730 o         1 MOL     -0.686543
     36 O8          2.9280   -2.6590   -1.2980 o         1 MOL     -0.686543
     37 H13         6.7940   -0.8860    0.0410 hn        1 MOL      0.058018
     38 H14         4.8050   -1.0650   -0.7900 h1        1 MOL     -0.020396
     39 H15         5.6540   -3.3350   -0.9830 hc        1 MOL      0.057838
     40 H16         5.8120   -3.0810   -2.7790 hc        1 MOL      0.057838
     41 N4          5.7520    0.8720   -2.7290 n         1 MOL     -0.201063
     42 C14         5.5870    1.8400   -3.8330 c3        1 MOL     -0.355282
     43 C15         4.2250    2.2980   -4.1980 c         1 MOL      0.545046
     44 O9          4.0210    2.8150   -5.3100 o         1 MOL     -0.559115
     45 H17         6.2440    1.1790   -1.9110 hn        1 MOL      0.204772
     46 H18         6.0070    1.3400   -4.7140 h1        1 MOL      0.146541
     47 H19         6.2010    2.7060   -3.5610 h1        1 MOL      0.146541
     48 N5          3.3210    2.0250   -3.2580 n         1 MOL     -0.168654
     49 C16         1.9110    2.4970   -3.3110 c3        1 MOL     -0.121397
     50 C17         1.6850    3.8490   -2.6200 c         1 MOL      0.442446
     51 O10         2.4420    4.1490   -1.6870 o         1 MOL     -0.509035
     52 C18         1.0450    1.3940   -2.8190 c3        1 MOL     -0.001923
     53 C19        -0.3100    1.5240   -3.4350 c         1 MOL      0.523505
     54 N6         -1.2070    2.2250   -2.6970 n         1 MOL     -0.653716
     55 O11        -0.6600    1.0130   -4.4500 o         1 MOL     -0.560113
     56 H20         3.6450    1.5830   -2.4050 hn        1 MOL      0.169961
     57 H21         1.7400    2.6420   -4.3730 h1        1 MOL      0.051073
     58 H22         0.9990    1.2890   -1.7340 hc        1 MOL      0.092838
     59 H23         1.4660    0.4140   -3.0520 hc        1 MOL      0.092838
     60 H24        -1.0850    2.4020   -1.7150 hn        1 MOL      0.303343
     61 H25        -2.1540    2.3140   -3.0300 hn        1 MOL      0.303343
     62 N7          0.7200    4.6760   -3.1090 n         1 MOL     -0.241761
     63 C20         0.3750    5.9960   -2.5880 c3        1 MOL     -0.281629
     64 C21        -0.9320    5.9250   -1.7280 c         1 MOL      0.654759
     65 O12        -1.8620    5.1310   -2.0400 o         1 MOL     -0.535201
     66 H26         0.1960    4.3440   -3.9040 hn        1 MOL      0.273734
     67 H27         0.1520    6.6300   -3.4490 h1        1 MOL      0.118586
     68 H28         1.1890    6.2540   -1.9240 h1        1 MOL      0.118586
     69 N8         -0.9980    6.7700   -0.6730 n         1 MOL     -0.384248
     70 C22        -2.1330    7.0850    0.1840 c3        1 MOL     -0.374841
     71 C23        -2.7630    5.9350    0.9780 c         1 MOL      0.539466
     72 O13        -3.9430    5.9020    1.2900 o         1 MOL     -0.553775
     73 C24        -1.7240    8.2710    1.1370 c3        1 MOL      0.483276
     74 C25        -0.7540    8.1360    2.3010 c3        1 MOL     -0.362536
     75 O14        -1.3140    9.4150    0.4350 oh        1 MOL     -0.619453
     76 H29        -0.1610    7.3310   -0.5810 hn        1 MOL      0.232921
     77 H30        -2.8570    7.4980   -0.5120 h1        1 MOL      0.181514
     78 H31        -2.6930    8.4810    1.5980 h1        1 MOL      0.032299
     79 H32        -0.4070    9.2260    0.1820 ho        1 MOL      0.376935
     80 H33        -0.6060    9.0650    2.8570 hc        1 MOL      0.087710
     81 H34        -1.1130    7.3770    3.0100 hc        1 MOL      0.087710
     82 H35         0.1840    7.6890    1.9800 hc        1 MOL      0.087710
     83 N9         -1.9470    4.9260    1.2130 n         1 MOL     -0.075360
     84 C26        -2.2920    3.6750    1.8040 c3        1 MOL     -0.182425
     85 C27        -1.7890    2.5370    0.8920 c         1 MOL      0.560738
     86 O15        -0.9280    2.6610    0.0590 o         1 MOL     -0.486633
     87 C28        -1.6610    3.5690    3.2410 c3        1 MOL      0.148581
     88 C29        -0.1090    3.6470    3.3800 c3        1 MOL      0.162846
     89 C30        -2.2900    4.5480    4.1930 c3        1 MOL     -0.420563
     90 C31         0.3800    2.6920    4.4890 c3        1 MOL     -0.153189
     91 H36        -1.0050    4.9150    0.8320 hn        1 MOL      0.149850
     92 H37        -3.3630    3.6560    2.0050 h1        1 MOL      0.093560
     93 H38        -1.9410    2.6020    3.6660 hc        1 MOL      0.010712
     94 H39         0.2180    4.6820    3.5390 hc        1 MOL     -0.024369
     95 H40         0.3530    3.3660    2.4370 hc        1 MOL     -0.024369
     96 H41        -3.3500    4.3110    4.2550 hc        1 MOL      0.097974
     97 H42        -1.9670    4.4260    5.2310 hc        1 MOL      0.097974
     98 H43        -2.2540    5.5660    3.8270 hc        1 MOL      0.097974
     99 H44         0.1410    1.6940    4.1310 hc        1 MOL      0.034135
    100 H45         1.4540    2.8170    4.6220 hc        1 MOL      0.034135
    101 H46        -0.1520    2.8910    5.4140 hc        1 MOL      0.034135
    102 N10        -2.4590    1.3980    1.0230 n         1 MOL     -0.619834
    103 C32        -2.1760    0.2620    0.1530 c3        1 MOL      0.219526
    104 C33        -3.4800   -0.5100   -0.2790 c         1 MOL      0.468852
    105 O16        -3.5410   -1.7150   -0.0730 o         1 MOL     -0.407677
    106 C34        -0.9860   -0.5400    0.7050 c3        1 MOL     -0.197794
    107 C35        -0.4860   -1.6730   -0.3120 c         1 MOL      0.469343
    108 O17        -0.7460   -1.6630   -1.5060 o         1 MOL     -0.639452
    109 O18         0.1870   -2.5960    0.1850 o         1 MOL     -0.639452
    110 H47        -3.2460    1.3670    1.6550 hn        1 MOL      0.320036
    111 H48        -1.8130    0.5800   -0.8260 h1        1 MOL     -0.035838
    112 H49        -1.2820   -0.9770    1.6630 hc        1 MOL      0.106965
    113 H50        -0.0830    0.0620    0.8110 hc        1 MOL      0.106965
    114 N11        -4.4650    0.2730   -0.6350 n         1 MOL     -0.449852
    115 C36        -5.8720    0.0330   -0.7240 c3        1 MOL      0.188537
    116 C37        -6.3890   -1.0020    0.3760 c         1 MOL      0.314641
    117 O19        -6.3890   -0.7170    1.5760 o         1 MOL     -0.487748
    118 C38        -6.5790    1.4320   -0.7380 c3        1 MOL     -0.333705
    119 C39        -8.0730    1.2820   -0.9960 ca        1 MOL      0.231624
    120 C40        -8.5660    1.2260   -2.3200 ca        1 MOL     -0.273391
    121 C41        -8.8890    1.0990    0.1440 ca        1 MOL     -0.273391
    122 C42        -9.9430    0.9960   -2.4470 ca        1 MOL     -0.038407
    123 C43       -10.3060    0.7910   -0.0210 ca        1 MOL     -0.038407
    124 C44       -10.7640    0.6960   -1.3690 ca        1 MOL     -0.188914
    125 H51        -4.1390    1.2130   -0.7840 hn        1 MOL      0.297387
    126 H52        -6.0910   -0.3880   -1.7070 h1        1 MOL      0.025671
    127 H53        -6.0970    1.9680   -1.5560 hc        1 MOL      0.119942
    128 H54        -6.4680    2.0080    0.1720 hc        1 MOL      0.119942
    129 H55        -7.8590    1.4830   -3.0860 ha        1 MOL      0.157896
    130 H56        -8.4290    1.1570    1.1080 ha        1 MOL      0.157896
    131 H57       -10.3320    0.8670   -3.4460 ha        1 MOL      0.102689
    132 H58       -10.9680    0.6430    0.8140 ha        1 MOL      0.102689
    133 H59       -11.7910    0.4650   -1.5800 ha        1 MOL      0.112151
    134 N12        -6.6650   -2.2570    0.0020 n         1 MOL     -0.013032
    135 C45        -7.1870   -3.2110    0.9920 c3        1 MOL      0.025492
    136 C46        -6.2000   -3.7190    2.0260 c         1 MOL      0.256206
    137 O20        -6.6160   -4.2550    3.0350 o         1 MOL     -0.548499
    138 C47        -7.7440   -4.3120    0.1520 c3        1 MOL     -0.094440
    139 C48        -7.0260   -4.3260   -1.1840 c3        1 MOL      0.026440
    140 C49        -6.8060   -2.7830   -1.3460 c3        1 MOL     -0.073359
    141 H60        -8.0450   -2.8450    1.5500 h1        1 MOL      0.074315
    142 H61        -7.6010   -5.2240    0.7360 hc        1 MOL      0.046145
    143 H62        -8.8050   -4.1180    0.0150 hc        1 MOL      0.046145
    144 H63        -6.0290   -4.6870   -0.9140 hc        1 MOL      0.008690
    145 H64        -7.5680   -4.8260   -1.9840 hc        1 MOL      0.008690
    146 H65        -5.8510   -2.6250   -1.8480 h1        1 MOL      0.045646
    147 H66        -7.5600   -2.2950   -1.9730 h1        1 MOL      0.045646
    148 N13        -4.9010   -3.6520    1.8530 n         1 MOL      0.253851
    149 C50        -3.8920   -4.2590    2.6730 c3        1 MOL     -0.500345
    150 C51        -3.6220   -3.4460    3.9510 c         1 MOL      0.509216
    151 O21        -3.0790   -4.0260    4.8850 o         1 MOL     -0.548355
    152 C52        -2.6140   -4.3830    1.8620 c3        1 MOL      0.254823
    153 C53        -2.4840   -5.7850    1.1630 c3        1 MOL     -0.085310
    154 C54        -1.1520   -5.7950    0.4030 c         1 MOL      0.655845
    155 O22        -1.0380   -4.9820   -0.5640 o         1 MOL     -0.719338
    156 O23        -0.2310   -6.5210    0.7680 o         1 MOL     -0.719338
    157 H67        -4.5760   -3.0960    1.0630 hn        1 MOL      0.036251
    158 H68        -4.2650   -5.2240    3.0030 h1        1 MOL      0.197138
    159 H69        -1.8260   -4.1030    2.5650 hc        1 MOL     -0.004668
    160 H70        -2.5460   -3.6020    1.0960 hc        1 MOL     -0.004668
    161 H71        -3.3080   -5.9410    0.4820 hc        1 MOL     -0.016797
    162 H72        -2.6000   -6.6200    1.8570 hc        1 MOL     -0.016797
    163 N14        -4.1430   -2.2570    4.1400 n         1 MOL     -0.119798
    164 C55        -3.9760   -1.3300    5.2780 c3        1 MOL     -0.334213
    165 H73        -4.3170   -0.3360    4.9890 h1        1 MOL      0.124904
    166 H74        -4.5650   -1.6830    6.1250 h1        1 MOL      0.124904
    167 H75        -2.9250   -1.2860    5.5600 h1        1 MOL      0.124904
    168 H76        -4.6910   -1.8720    3.3720 hn        1 MOL      0.153394
    169 Ca1         0.7710   -3.9070   -1.9720 Ca        1 MOL      1.771925
    170 O24         2.2400   -5.4950   -0.5070 oh        1 MOL     -0.841488
    171 H77         1.7120   -6.0900    0.0350 ho        1 MOL      0.407769
    172 H78         3.1410   -5.6990   -0.2890 ho        1 MOL      0.407769
    173 O25        -0.9080   -4.2010   -4.0180 oh        1 MOL     -0.841488
    174 H79        -0.6940   -4.7940   -4.7420 ho        1 MOL      0.407769
    175 H80        -1.8000   -3.9130   -4.2070 ho        1 MOL      0.407769
    176 O26         1.0600   -2.0570   -4.0180 oh        1 MOL     -0.841488
    177 H81         0.1720   -1.7410   -4.1970 ho        1 MOL      0.407769
    178 H82         1.6190   -1.4690   -4.5210 ho        1 MOL      0.407769
    179 O27         1.1930   -6.1670   -3.2110 oh        1 MOL     -0.841488
    180 H83         1.9610   -6.5760   -3.6150 ho        1 MOL      0.407769
    181 H84         0.4870   -6.8090   -3.3310 ho        1 MOL      0.407769
@<TRIPOS>BOND
     1    1    2 1   
     2    1    4 1   
     3    1    5 1   
     4    1    6 1   
     5    2    3 2   
     6    2    7 1   
     7    7    8 1   
     8    7   15 1   
     9    8    9 1   
    10    8   11 1   
    11    8   16 1   
    12    9   10 2   
    13    9   19 1   
    14   11   12 1   
    15   11   17 1   
    16   11   18 1   
    17   12   13 1   
    18   12   14 1   
    19   19   20 1   
    20   19   24 1   
    21   20   21 1   
    22   20   23 1   
    23   20   25 1   
    24   21   22 2   
    25   21   29 1   
    26   23   26 1   
    27   23   27 1   
    28   23   28 1   
    29   29   30 1   
    30   29   37 1   
    31   30   31 1   
    32   30   33 1   
    33   30   38 1   
    34   31   32 2   
    35   31   41 1   
    36   33   34 1   
    37   33   39 1   
    38   33   40 1   
    39   34   35 1   
    40   34   36 1   
    41   41   42 1   
    42   41   45 1   
    43   42   43 1   
    44   42   46 1   
    45   42   47 1   
    46   43   44 2   
    47   43   48 1   
    48   48   49 1   
    49   48   56 1   
    50   49   50 1   
    51   49   52 1   
    52   49   57 1   
    53   50   51 2   
    54   50   62 1   
    55   52   53 1   
    56   52   58 1   
    57   52   59 1   
    58   53   54 1   
    59   53   55 2   
    60   54   60 1   
    61   54   61 1   
    62   62   63 1   
    63   62   66 1   
    64   63   64 1   
    65   63   67 1   
    66   63   68 1   
    67   64   65 2   
    68   64   69 1   
    69   69   70 1   
    70   69   76 1   
    71   70   71 1   
    72   70   73 1   
    73   70   77 1   
    74   71   72 2   
    75   71   83 1   
    76   73   74 1   
    77   73   75 1   
    78   73   78 1   
    79   74   80 1   
    80   74   81 1   
    81   74   82 1   
    82   75   79 1   
    83   83   84 1   
    84   83   91 1   
    85   84   85 1   
    86   84   87 1   
    87   84   92 1   
    88   85   86 2   
    89   85  102 1   
    90   87   88 1   
    91   87   89 1   
    92   87   93 1   
    93   88   90 1   
    94   88   94 1   
    95   88   95 1   
    96   89   96 1   
    97   89   97 1   
    98   89   98 1   
    99   90   99 1   
   100   90  100 1   
   101   90  101 1   
   102  102  103 1   
   103  102  110 1   
   104  103  104 1   
   105  103  106 1   
   106  103  111 1   
   107  104  105 2   
   108  104  114 1   
   109  106  107 1   
   110  106  112 1   
   111  106  113 1   
   112  107  108 1   
   113  107  109 1   
   114  114  115 1   
   115  114  125 1   
   116  115  116 1   
   117  115  118 1   
   118  115  126 1   
   119  116  117 2   
   120  116  134 1   
   121  118  119 1   
   122  118  127 1   
   123  118  128 1   
   124  119  120 ar  
   125  119  121 ar  
   126  120  122 ar  
   127  120  129 1   
   128  121  123 ar  
   129  121  130 1   
   130  122  124 ar  
   131  122  131 1   
   132  123  124 ar  
   133  123  132 1   
   134  124  133 1   
   135  134  135 1   
   136  134  140 1   
   137  135  136 1   
   138  135  138 1   
   139  135  141 1   
   140  136  137 2   
   141  136  148 1   
   142  138  139 1   
   143  138  142 1   
   144  138  143 1   
   145  139  140 1   
   146  139  144 1   
   147  139  145 1   
   148  140  146 1   
   149  140  147 1   
   150  148  149 1   
   151  148  157 1   
   152  149  150 1   
   153  149  152 1   
   154  149  158 1   
   155  150  151 2   
   156  150  163 1   
   157  152  153 1   
   158  152  159 1   
   159  152  160 1   
   160  153  154 1   
   161  153  161 1   
   162  153  162 1   
   163  154  155 1   
   164  154  156 1   
   165  163  164 1   
   166  163  168 1   
   167  164  165 1   
   168  164  166 1   
   169  164  167 1   
   170  170  171 1   
   171  170  172 1   
   172  173  174 1   
   173  173  175 1   
   174  176  177 1   
   175  176  178 1   
   176  179  180 1   
   177  179  181 1   
@<TRIPOS>SUBSTRUCTURE
     1 MOL         1 TEMP              0 ****  ****    0 ROOT
