@<TRIPOS>MOLECULE
MOL
  195   189     1     0     0
SMALL
resp


@<TRIPOS>ATOM
      1 C1          0.3870   -3.9860    3.0470 c3        1 MOL     -0.215631
      2 C2          1.2620   -3.8140    1.8450 c         1 MOL      0.554949
      3 O1          2.1600   -2.9660    1.7890 o         1 MOL     -0.539731
      4 H1         -0.6290   -4.2190    2.7260 hc        1 MOL      0.049231
      5 H2          0.7690   -4.8020    3.6600 hc        1 MOL      0.049231
      6 H3          0.3810   -3.0650    3.6280 hc        1 MOL      0.049231
      7 N1          1.1080   -4.7070    0.8890 n         1 MOL     -0.290449
      8 C3          1.7600   -4.7030   -0.3640 c3        1 MOL     -0.135287
      9 C4          3.3090   -4.4470   -0.3610 c         1 MOL      0.646143
     10 O2          3.8170   -3.8130   -1.3260 o         1 MOL     -0.546426
     11 C5          0.9710   -3.9760   -1.4970 c3        1 MOL     -0.081611
     12 C6         -0.5340   -4.0210   -1.3230 c         1 MOL      0.792674
     13 O3         -1.2210   -3.0850   -0.8690 o         1 MOL     -0.786967
     14 O4         -1.0500   -5.0900   -1.7120 o         1 MOL     -0.786967
     15 H4          0.4180   -5.4370    1.0240 hn        1 MOL      0.187691
     16 H5          1.7640   -5.7430   -0.6830 h1        1 MOL      0.077898
     17 H6          1.2700   -4.2990   -2.4920 hc        1 MOL      0.052810
     18 H7          1.2130   -2.9070   -1.4930 hc        1 MOL      0.052810
     19 N2          4.0240   -4.7480    0.7590 n         1 MOL     -0.457998
     20 C7          5.5060   -4.5210    0.9790 c3        1 MOL     -0.086499
     21 C8          6.3820   -5.2060   -0.1020 c         1 MOL      0.364416
     22 O5          6.0090   -6.2730   -0.6070 o         1 MOL     -0.560295
     23 C9          5.9270   -4.8660    2.4320 c3        1 MOL     -0.019768
     24 C10         5.8500   -6.3900    2.7390 c3        1 MOL      0.362440
     25 C11         5.1560   -3.9710    3.4730 c3        1 MOL     -0.330927
     26 C12         6.3780   -6.7820    4.0990 c3        1 MOL     -0.419099
     27 H8          3.4620   -5.1690    1.4820 hn        1 MOL      0.259607
     28 H9          5.6320   -3.4400    0.8710 h1        1 MOL      0.180615
     29 H10         6.9790   -4.6120    2.5540 hc        1 MOL      0.106904
     30 H11         6.4510   -6.8910    1.9740 hc        1 MOL     -0.056832
     31 H12         4.8440   -6.7510    2.5250 hc        1 MOL     -0.056832
     32 H13         5.6980   -3.9350    4.4120 hc        1 MOL      0.092680
     33 H14         5.1580   -2.9360    3.1110 hc        1 MOL      0.092680
     34 H15         4.1060   -4.2210    3.5230 hc        1 MOL      0.092680
     35 H16         5.6230   -6.5890    4.8680 hc        1 MOL      0.082208
     36 H17         6.5980   -7.8460    3.9910 hc        1 MOL      0.082208
     37 H18         7.3270   -6.2830    4.2940 hc        1 MOL      0.082208
     38 N3          7.5730   -4.7750   -0.4460 n         1 MOL     -0.284666
     39 C13         8.2060   -3.5490   -0.0530 c3        1 MOL     -0.011756
     40 C14         7.4870   -2.3180   -0.5740 c         1 MOL      0.620205
     41 O6          7.4110   -1.3220    0.1070 o         1 MOL     -0.541545
     42 C15         9.6010   -3.5660   -0.6780 c3        1 MOL     -0.142223
     43 C16        10.5440   -2.3580   -0.3750 c         1 MOL      0.762969
     44 O7         10.9670   -2.2570    0.8000 o         1 MOL     -0.729555
     45 O8         10.8460   -1.6360   -1.2910 o         1 MOL     -0.729555
     46 H19         7.9980   -5.2030   -1.2490 hn        1 MOL      0.258483
     47 H20         8.3570   -3.4170    1.0190 h1        1 MOL      0.010245
     48 H21         9.3970   -3.7430   -1.7320 hc        1 MOL     -0.017874
     49 H22        10.1270   -4.4370   -0.2860 hc        1 MOL     -0.017874
     50 N4          6.8660   -2.4130   -1.7430 n         1 MOL     -0.450504
     51 C17         5.8790   -1.5040   -2.3190 c3        1 MOL      0.012438
     52 C18         6.3160   -0.0830   -2.5440 c         1 MOL      0.294484
     53 O9          7.5290    0.2300   -2.5790 o         1 MOL     -0.448300
     54 H23         7.0630   -3.2550   -2.2660 hn        1 MOL      0.293138
     55 H24         5.0340   -1.5350   -1.6320 h1        1 MOL      0.085095
     56 H25         5.5360   -1.9990   -3.2210 h1        1 MOL      0.085095
     57 N5          5.4200    0.8700   -2.7300 n         1 MOL     -0.173760
     58 C19         5.6980    2.2750   -2.9560 c3        1 MOL      0.030474
     59 C20         6.1440    3.1520   -1.7470 c         1 MOL      0.367564
     60 O10         6.6750    4.2410   -1.8950 o         1 MOL     -0.513950
     61 C21         4.4760    2.9520   -3.6160 c3        1 MOL     -0.330667
     62 C22         3.1530    2.5830   -2.8950 c         1 MOL      0.693685
     63 O11         2.8690    3.1890   -1.8210 o         1 MOL     -0.673407
     64 O12         2.4550    1.6050   -3.2430 o         1 MOL     -0.673407
     65 H26         4.4920    0.4870   -2.8900 hn        1 MOL      0.163331
     66 H27         6.5100    2.3650   -3.6820 h1        1 MOL      0.083672
     67 H28         4.4920    2.4960   -4.6000 hc        1 MOL      0.065141
     68 H29         4.5650    4.0360   -3.7420 hc        1 MOL      0.065141
     69 N6          5.9380    2.6530   -0.5200 n         1 MOL     -0.147773
     70 C23         6.1550    3.4480    0.7670 c3        1 MOL     -0.143979
     71 C24         5.3430    4.7390    0.8030 c         1 MOL      0.536511
     72 O13         5.7580    5.5250    1.5970 o         1 MOL     -0.578626
     73 H30         5.5000    1.7470   -0.4690 hn        1 MOL      0.216885
     74 H31         7.1930    3.7180    0.9560 h1        1 MOL      0.092326
     75 H32         5.8460    2.8750    1.6360 h1        1 MOL      0.092326
     76 N7          4.2630    4.8610    0.0450 n         1 MOL     -0.143686
     77 C25         3.2700    5.9630    0.1970 c3        1 MOL      0.154688
     78 C26         2.7760    6.1400    1.6480 c         1 MOL      0.345114
     79 O14         2.5050    7.2490    2.0450 o         1 MOL     -0.498354
     80 C27         3.7310    7.1790   -0.6180 c3        1 MOL     -0.233041
     81 C28         4.2890    6.7800   -2.0060 c3        1 MOL     -0.185830
     82 C29         4.4460    7.8740   -2.9810 c         1 MOL      0.676228
     83 N8          4.8590    7.6800   -4.1890 n         1 MOL     -0.799407
     84 O15         4.3000    9.0170   -2.6510 o         1 MOL     -0.591006
     85 H33         4.1700    4.2180   -0.7350 hn        1 MOL      0.018931
     86 H34         2.3770    5.5660   -0.2980 h1        1 MOL      0.055681
     87 H35         4.5180    7.7270   -0.1030 hc        1 MOL      0.092916
     88 H36         2.9280    7.9170   -0.6410 hc        1 MOL      0.092916
     89 H37         3.6940    5.9830   -2.4470 hc        1 MOL      0.115159
     90 H38         5.2940    6.3560   -1.9700 hc        1 MOL      0.115159
     91 H39         5.1850    6.7570   -4.4740 hn        1 MOL      0.346049
     92 H40         4.7220    8.4120   -4.8730 hn        1 MOL      0.346049
     93 N9          2.6180    5.0030    2.3350 n         1 MOL     -0.224468
     94 C30         1.9740    4.7460    3.6430 c3        1 MOL     -0.092392
     95 C31         0.7740    3.8270    3.5640 c         1 MOL      0.631721
     96 O16         0.1600    3.6110    4.6000 o         1 MOL     -0.567973
     97 C32         2.9810    4.3010    4.7070 c3        1 MOL      0.405726
     98 C33         3.4050    2.8320    4.6040 c3        1 MOL     -0.353815
     99 C34         4.2200    5.1940    4.8680 c3        1 MOL     -0.353815
    100 H41         3.0010    4.2060    1.8500 hn        1 MOL      0.184411
    101 H42         1.5730    5.6770    4.0300 h1        1 MOL      0.087138
    102 H43         2.4140    4.4030    5.6300 hc        1 MOL     -0.078491
    103 H44         4.1260    2.5470    5.3610 hc        1 MOL      0.078060
    104 H45         2.5290    2.1860    4.6630 hc        1 MOL      0.078060
    105 H46         3.8400    2.7570    3.6030 hc        1 MOL      0.078060
    106 H47         4.7190    5.0650    5.8300 hc        1 MOL      0.078060
    107 H48         4.9960    4.9850    4.1300 hc        1 MOL      0.078060
    108 H49         3.8770    6.2060    4.6710 hc        1 MOL      0.078060
    109 N10         0.2250    3.3360    2.3950 n         1 MOL     -0.609574
    110 C35        -0.8500    2.3040    2.1970 c3        1 MOL      0.411127
    111 C36        -1.6090    2.4060    0.7770 c         1 MOL      0.342800
    112 O17        -1.0960    3.0900   -0.1310 o         1 MOL     -0.430035
    113 C37        -0.2420    0.9250    2.2990 c3        1 MOL     -0.358576
    114 C38        -1.0020   -0.1640    1.6140 c         1 MOL      0.590823
    115 N11        -0.5410   -0.6860    0.4630 n         1 MOL     -0.704079
    116 O18        -2.0620   -0.5800    2.0300 o         1 MOL     -0.550983
    117 H50         0.7780    3.5660    1.5810 hn        1 MOL      0.259919
    118 H51        -1.5500    2.4050    3.0220 h1        1 MOL      0.025101
    119 H52        -0.1880    0.7780    3.3740 hc        1 MOL      0.102848
    120 H53         0.7750    0.8520    1.9110 hc        1 MOL      0.102848
    121 H54         0.4040   -0.4100    0.2220 hn        1 MOL      0.382095
    122 H55        -0.9450   -1.5230    0.0710 hn        1 MOL      0.382095
    123 N12        -2.8350    1.8220    0.7710 n         1 MOL     -0.432670
    124 C39        -3.8340    1.9800   -0.3010 c3        1 MOL     -0.012322
    125 C40        -5.2660    1.6560    0.1220 c         1 MOL      0.650394
    126 O19        -5.4290    0.7060    0.9110 o         1 MOL     -0.674187
    127 C41        -3.4610    1.0270   -1.4120 c3        1 MOL     -0.146278
    128 C42        -4.5130    0.6980   -2.4600 ca        1 MOL      0.064526
    129 C43        -5.1390   -0.5110   -2.3490 ca        1 MOL     -0.177199
    130 C44        -4.9000    1.6040   -3.4160 ca        1 MOL     -0.177199
    131 C45        -6.1560   -0.8350   -3.2300 ca        1 MOL     -0.209523
    132 C46        -5.9970    1.3530   -4.2640 ca        1 MOL     -0.209523
    133 C47        -6.5990    0.0990   -4.2390 ca        1 MOL      0.224317
    134 O20        -7.6300   -0.1270   -5.1270 oh        1 MOL     -0.504041
    135 H56        -3.0540    1.2590    1.5760 hn        1 MOL      0.269412
    136 H57        -3.7490    2.9860   -0.7240 h1        1 MOL      0.087562
    137 H58        -3.2710    0.1060   -0.8650 hc        1 MOL      0.094707
    138 H59        -2.6030    1.4140   -1.9610 hc        1 MOL      0.094707
    139 H60        -4.9180   -1.2050   -1.5570 ha        1 MOL      0.145829
    140 H61        -4.5330    2.6180   -3.3590 ha        1 MOL      0.145829
    141 H62        -6.6600   -1.7880   -3.1070 ha        1 MOL      0.147197
    142 H63        -6.2720    2.1730   -4.9180 ha        1 MOL      0.147197
    143 H64        -8.1140   -0.9650   -5.1000 ho        1 MOL      0.372267
    144 N13        -6.2960    2.3100   -0.3100 n         1 MOL     -0.471948
    145 C48        -7.7090    2.0660    0.1730 c3        1 MOL      0.254042
    146 C49        -8.5380    1.5430   -0.9350 c         1 MOL      0.637706
    147 O21        -9.0100    2.3320   -1.7860 o         1 MOL     -0.555022
    148 C50        -8.1510    3.3760    0.7230 c3        1 MOL     -0.098504
    149 C51        -9.6350    3.3550    1.1740 c3        1 MOL     -0.292753
    150 C52        -9.9490    4.7510    1.6820 c         1 MOL      0.803911
    151 O22        -9.5860    5.0470    2.8480 o         1 MOL     -0.746376
    152 O23       -10.6830    5.4960    1.0290 o         1 MOL     -0.746376
    153 H65        -6.1840    3.0790   -0.9630 hn        1 MOL      0.255256
    154 H66        -7.6360    1.4820    1.0920 h1        1 MOL      0.085736
    155 H67        -8.0660    4.1790   -0.0120 hc        1 MOL      0.023995
    156 H68        -7.3930    3.7420    1.4130 hc        1 MOL      0.023995
    157 H69        -9.8720    2.5190    1.8300 hc        1 MOL      0.055270
    158 H70       -10.2020    3.1920    0.2570 hc        1 MOL      0.055270
    159 N14        -8.7160    0.2070   -1.0430 n         1 MOL     -0.629740
    160 C53        -8.1760   -0.8750   -0.1440 c3        1 MOL     -0.010173
    161 C54        -8.5050   -0.7910    1.4680 c         1 MOL      0.469015
    162 O24        -9.5650   -0.3650    1.8780 o         1 MOL     -0.555034
    163 C55        -8.6580   -2.2670   -0.6320 c3        1 MOL      0.005252
    164 C56        -8.0990   -3.5570    0.0460 c3        1 MOL     -0.302772
    165 C57        -6.5850   -3.5900    0.0010 c         1 MOL      0.643607
    166 O25        -5.9960   -4.0370   -1.0260 o         1 MOL     -0.751250
    167 O26        -6.0250   -3.0220    0.9580 o         1 MOL     -0.751250
    168 H71        -9.1650   -0.1420   -1.8790 hn        1 MOL      0.337201
    169 H72        -7.0870   -0.7550   -0.1380 h1        1 MOL      0.127474
    170 H73        -8.4810   -2.4190   -1.6920 hc        1 MOL      0.035450
    171 H74        -9.7410   -2.2580   -0.5770 hc        1 MOL      0.035450
    172 H75        -8.5110   -4.4770   -0.3710 hc        1 MOL      0.073219
    173 H76        -8.3860   -3.4700    1.0900 hc        1 MOL      0.073219
    174 N15        -7.5610   -1.2040    2.2920 n         1 MOL     -0.156838
    175 C58        -7.6930   -1.2750    3.7170 c3        1 MOL     -0.209355
    176 H77        -6.9320   -0.6490    4.1830 h1        1 MOL      0.079853
    177 H78        -8.6810   -0.9210    4.0090 h1        1 MOL      0.079853
    178 H79        -7.5640   -2.3070    4.0440 h1        1 MOL      0.079853
    179 H80        -6.7520   -1.5520    1.8090 hn        1 MOL      0.332586
    180 Ca1        -3.6130   -4.7010   -0.7520 Ca        1 MOL      1.740118
    181 O27        -5.1890   -6.7060    0.3300 oh        1 MOL     -0.816629
    182 H81        -5.0330   -7.2810    1.0760 ho        1 MOL      0.403205
    183 H82        -6.0310   -6.2870    0.5200 ho        1 MOL      0.403205
    184 O28        -3.5630   -2.2560    0.3310 oh        1 MOL     -0.816629
    185 H83        -4.4080   -2.0060    0.7260 ho        1 MOL      0.403205
    186 H84        -2.9870   -1.5120    0.5080 ho        1 MOL      0.403205
    187 O29        -3.6680   -6.4490   -2.9160 oh        1 MOL     -0.816629
    188 H85        -3.6350   -6.0240   -3.7770 ho        1 MOL      0.403205
    189 H86        -3.4910   -7.3660   -3.0990 ho        1 MOL      0.403205
    190 O30        -3.7550   -4.6870    1.9080 oh        1 MOL     -0.816629
    191 H87        -3.4230   -3.9460    2.4110 ho        1 MOL      0.403205
    192 H88        -4.3180   -5.1560    2.5180 ho        1 MOL      0.403205
    193 O31        -3.6620   -3.4730   -3.1710 oh        1 MOL     -0.816629
    194 H89        -4.2020   -3.5340   -3.9590 ho        1 MOL      0.403205
    195 H90        -3.3340   -2.5740   -3.1620 ho        1 MOL      0.403205
@<TRIPOS>BOND
     1    1    2 1   
     2    1    4 1   
     3    1    5 1   
     4    1    6 1   
     5    2    3 2   
     6    2    7 1   
     7    7    8 1   
     8    7   15 1   
     9    8    9 1   
    10    8   11 1   
    11    8   16 1   
    12    9   10 2   
    13    9   19 1   
    14   11   12 1   
    15   11   17 1   
    16   11   18 1   
    17   12   13 1   
    18   12   14 1   
    19   19   20 1   
    20   19   27 1   
    21   20   21 1   
    22   20   23 1   
    23   20   28 1   
    24   21   22 2   
    25   21   38 1   
    26   23   24 1   
    27   23   25 1   
    28   23   29 1   
    29   24   26 1   
    30   24   30 1   
    31   24   31 1   
    32   25   32 1   
    33   25   33 1   
    34   25   34 1   
    35   26   35 1   
    36   26   36 1   
    37   26   37 1   
    38   38   39 1   
    39   38   46 1   
    40   39   40 1   
    41   39   42 1   
    42   39   47 1   
    43   40   41 2   
    44   40   50 1   
    45   42   43 1   
    46   42   48 1   
    47   42   49 1   
    48   43   44 1   
    49   43   45 1   
    50   50   51 1   
    51   50   54 1   
    52   51   52 1   
    53   51   55 1   
    54   51   56 1   
    55   52   53 2   
    56   52   57 1   
    57   57   58 1   
    58   57   65 1   
    59   58   59 1   
    60   58   61 1   
    61   58   66 1   
    62   59   60 2   
    63   59   69 1   
    64   61   62 1   
    65   61   67 1   
    66   61   68 1   
    67   62   63 1   
    68   62   64 1   
    69   69   70 1   
    70   69   73 1   
    71   70   71 1   
    72   70   74 1   
    73   70   75 1   
    74   71   72 2   
    75   71   76 1   
    76   76   77 1   
    77   76   85 1   
    78   77   78 1   
    79   77   80 1   
    80   77   86 1   
    81   78   79 2   
    82   78   93 1   
    83   80   81 1   
    84   80   87 1   
    85   80   88 1   
    86   81   82 1   
    87   81   89 1   
    88   81   90 1   
    89   82   83 1   
    90   82   84 2   
    91   83   91 1   
    92   83   92 1   
    93   93   94 1   
    94   93  100 1   
    95   94   95 1   
    96   94   97 1   
    97   94  101 1   
    98   95   96 2   
    99   95  109 1   
   100   97   98 1   
   101   97   99 1   
   102   97  102 1   
   103   98  103 1   
   104   98  104 1   
   105   98  105 1   
   106   99  106 1   
   107   99  107 1   
   108   99  108 1   
   109  109  110 1   
   110  109  117 1   
   111  110  111 1   
   112  110  113 1   
   113  110  118 1   
   114  111  112 2   
   115  111  123 1   
   116  113  114 1   
   117  113  119 1   
   118  113  120 1   
   119  114  115 1   
   120  114  116 2   
   121  115  121 1   
   122  115  122 1   
   123  123  124 1   
   124  123  135 1   
   125  124  125 1   
   126  124  127 1   
   127  124  136 1   
   128  125  126 2   
   129  125  144 1   
   130  127  128 1   
   131  127  137 1   
   132  127  138 1   
   133  128  129 ar  
   134  128  130 ar  
   135  129  131 ar  
   136  129  139 1   
   137  130  132 ar  
   138  130  140 1   
   139  131  133 ar  
   140  131  141 1   
   141  132  133 ar  
   142  132  142 1   
   143  133  134 1   
   144  134  143 1   
   145  144  145 1   
   146  144  153 1   
   147  145  146 1   
   148  145  148 1   
   149  145  154 1   
   150  146  147 2   
   151  146  159 1   
   152  148  149 1   
   153  148  155 1   
   154  148  156 1   
   155  149  150 1   
   156  149  157 1   
   157  149  158 1   
   158  150  151 1   
   159  150  152 1   
   160  159  160 1   
   161  159  168 1   
   162  160  161 1   
   163  160  163 1   
   164  160  169 1   
   165  161  162 2   
   166  161  174 1   
   167  163  164 1   
   168  163  170 1   
   169  163  171 1   
   170  164  165 1   
   171  164  172 1   
   172  164  173 1   
   173  165  166 1   
   174  165  167 1   
   175  174  175 1   
   176  174  179 1   
   177  175  176 1   
   178  175  177 1   
   179  175  178 1   
   180  181  182 1   
   181  181  183 1   
   182  184  185 1   
   183  184  186 1   
   184  187  188 1   
   185  187  189 1   
   186  190  191 1   
   187  190  192 1   
   188  193  194 1   
   189  193  195 1   
@<TRIPOS>SUBSTRUCTURE
     1 MOL         1 TEMP              0 ****  ****    0 ROOT
