@<TRIPOS>MOLECULE
MOL
  188   182     1     0     0
SMALL
resp


@<TRIPOS>ATOM
      1 C1         -6.8610   -0.1600    3.9460 c3        1 MOL     -0.358384
      2 C2         -6.5290   -0.6970    2.5030 c         1 MOL      0.653956
      3 O1         -5.6190   -0.3010    1.8580 o         1 MOL     -0.551230
      4 H1         -7.9230    0.0810    4.0080 hc        1 MOL      0.091270
      5 H2         -6.6200   -0.9250    4.6840 hc        1 MOL      0.091270
      6 H3         -6.2730    0.7360    4.1450 hc        1 MOL      0.091270
      7 N1         -7.1950   -1.7840    2.0960 n         1 MOL     -0.629672
      8 C3         -7.2150   -2.5100    0.8230 c3        1 MOL      0.243385
      9 C4         -7.6920   -1.6610   -0.3920 c         1 MOL      0.375033
     10 O2         -8.3830   -2.0870   -1.3010 o         1 MOL     -0.448006
     11 C5         -5.8980   -3.1690    0.5220 c3        1 MOL     -0.137064
     12 C6         -6.0710   -4.1830   -0.6220 c         1 MOL      0.660104
     13 O3         -6.9810   -5.0440   -0.6140 o         1 MOL     -0.641876
     14 O4         -5.1770   -4.0790   -1.5540 o         1 MOL     -0.641876
     15 H4         -7.8500   -2.1220    2.7900 hn        1 MOL      0.311803
     16 H5         -7.9210   -3.3300    0.8790 h1        1 MOL      0.032731
     17 H6         -5.5560   -3.7700    1.3690 hc        1 MOL      0.013628
     18 H7         -5.0450   -2.4930    0.4000 hc        1 MOL      0.013628
     19 N2         -7.4260   -0.3030   -0.3140 n         1 MOL     -0.326132
     20 C7         -7.6980    0.6800   -1.3420 c3        1 MOL      0.147434
     21 C8         -6.4350    1.5080   -1.7930 c         1 MOL      0.559002
     22 O5         -6.6030    2.4100   -2.6640 o         1 MOL     -0.580895
     23 C9         -8.9940    1.5410   -1.0450 c3        1 MOL     -0.444695
     24 C10        -8.8900    2.3490    0.2830 c3        1 MOL      0.131468
     25 C11       -10.2780    2.8740    0.6630 c3        1 MOL     -0.135746
     26 C12       -10.2060    3.6450    1.9610 c3        1 MOL      0.070850
     27 N3        -11.6050    4.0250    2.4400 n4        1 MOL     -0.317801
     28 H8         -6.9960    0.0440    0.5260 hn        1 MOL      0.170480
     29 H9         -7.8650    0.1060   -2.2510 h1        1 MOL      0.106458
     30 H10        -9.8340    0.8410   -1.0330 hc        1 MOL      0.140686
     31 H11        -9.0460    2.2520   -1.8660 hc        1 MOL      0.140686
     32 H12        -8.2520    3.2310    0.2120 hc        1 MOL      0.014885
     33 H13        -8.5000    1.7570    1.1160 hc        1 MOL      0.014885
     34 H14       -10.9780    2.0470    0.7140 hc        1 MOL      0.065756
     35 H15       -10.5520    3.5730   -0.1270 hc        1 MOL      0.065756
     36 H16        -9.5940    4.5310    1.7970 hx        1 MOL      0.066799
     37 H17        -9.7230    2.9580    2.6660 hx        1 MOL      0.066799
     38 H18       -12.0910    4.5800    1.7540 hn        1 MOL      0.283740
     39 H19       -12.1160    3.1660    2.5320 hn        1 MOL      0.283740
     40 H20       -11.4710    4.5190    3.3110 hn        1 MOL      0.283740
     41 N4         -5.2600    1.1580   -1.2790 n         1 MOL     -0.524561
     42 C13        -3.9870    1.7430   -1.6040 c3        1 MOL      0.136748
     43 C14        -3.3670    1.0680   -2.8470 c         1 MOL      0.459683
     44 O6         -3.4100   -0.1500   -2.8950 o         1 MOL     -0.444578
     45 C15        -3.0130    1.5900   -0.4970 c3        1 MOL     -0.060593
     46 C16        -1.6880    2.3460   -0.6770 c         1 MOL      0.676606
     47 O7         -0.8810    1.8360   -1.4640 o         1 MOL     -0.747440
     48 O8         -1.3770    3.3120    0.0280 o         1 MOL     -0.747440
     49 H21        -5.2440    0.4780   -0.5350 hn        1 MOL      0.306914
     50 H22        -4.0640    2.8000   -1.8480 h1        1 MOL      0.040013
     51 H23        -2.7710    0.5350   -0.3380 hc        1 MOL      0.004300
     52 H24        -3.4720    1.7930    0.4680 hc        1 MOL      0.004300
     53 N5         -2.9270    1.8590   -3.8390 n         1 MOL     -0.240674
     54 C17        -2.4940    1.3670   -5.1810 c3        1 MOL     -0.232120
     55 C18        -1.2250    0.4230   -5.1440 c         1 MOL      0.551722
     56 O9         -1.0540   -0.3400   -6.1190 o         1 MOL     -0.539901
     57 H25        -3.1190    2.8350   -3.6560 hn        1 MOL      0.236485
     58 H26        -2.2360    2.2690   -5.7440 h1        1 MOL      0.129801
     59 H27        -3.3660    0.8830   -5.6150 h1        1 MOL      0.129801
     60 N6         -0.4760    0.4020   -4.0630 n         1 MOL     -0.438970
     61 C19         0.5860   -0.5960   -3.8110 c3        1 MOL     -0.028196
     62 C20        -0.0280   -2.0020   -3.4400 c         1 MOL      0.552819
     63 O10         0.7710   -2.9280   -3.2640 o         1 MOL     -0.576157
     64 C21         1.6170   -0.0750   -2.7840 c3        1 MOL     -0.411778
     65 C22         2.0690    1.3050   -3.2120 c         1 MOL      0.783336
     66 N7          2.7240    1.4170   -4.3090 n         1 MOL     -0.783351
     67 O11         1.9310    2.3040   -2.4980 o         1 MOL     -0.706918
     68 H28        -0.7630    1.0260   -3.3230 hn        1 MOL      0.303385
     69 H29         1.1420   -0.7590   -4.7340 h1        1 MOL      0.085803
     70 H30         2.5230   -0.6680   -2.6510 hc        1 MOL      0.203806
     71 H31         1.1000   -0.0020   -1.8250 hc        1 MOL      0.203806
     72 H32         2.8280    0.6930   -5.0050 hn        1 MOL      0.372876
     73 H33         3.0480    2.3200   -4.6260 hn        1 MOL      0.372876
     74 N8         -1.2980   -2.0980   -3.1130 n         1 MOL     -0.262053
     75 C23        -1.8930   -3.2440   -2.4710 c3        1 MOL      0.064179
     76 C24        -1.5720   -3.4580   -1.0520 c         1 MOL      0.567797
     77 O12        -1.0140   -4.4420   -0.6960 o         1 MOL     -0.544807
     78 H34        -1.7820   -1.2170   -3.1480 hn        1 MOL      0.184685
     79 H35        -1.4530   -4.1160   -2.9550 h1        1 MOL      0.040696
     80 H36        -2.9760   -3.2990   -2.4990 h1        1 MOL      0.040696
     81 N9         -1.9340   -2.4870   -0.2320 n         1 MOL     -0.305538
     82 C25        -1.5500   -2.4420    1.1830 c3        1 MOL     -0.052233
     83 C26        -0.2540   -1.6450    1.3040 c         1 MOL      0.426068
     84 O13        -0.0780   -0.5220    0.8090 o         1 MOL     -0.591046
     85 C27        -2.7420   -1.9290    2.0470 c3        1 MOL     -0.049744
     86 C28        -2.3200   -1.4250    3.3660 ca        1 MOL      0.079777
     87 C29        -2.4210   -2.1700    4.5330 ca        1 MOL     -0.257111
     88 C30        -1.8790   -0.1380    3.3790 ca        1 MOL     -0.257111
     89 C31        -2.0430   -1.6730    5.7710 ca        1 MOL     -0.079581
     90 C32        -1.5610    0.4230    4.6470 ca        1 MOL     -0.079581
     91 C33        -1.7210   -0.2600    5.8660 ca        1 MOL      0.165184
     92 O14        -1.4630    0.3330    7.0080 oh        1 MOL     -0.414481
     93 H37        -2.4050   -1.7250   -0.7050 hn        1 MOL      0.171168
     94 H38        -1.3510   -3.4240    1.6290 h1        1 MOL      0.075930
     95 H39        -3.4040   -2.7850    2.1390 hc        1 MOL      0.133593
     96 H40        -3.0940   -1.0810    1.4530 hc        1 MOL      0.133593
     97 H41        -2.9060   -3.1350    4.4350 ha        1 MOL      0.139386
     98 H42        -1.7680    0.4280    2.4730 ha        1 MOL      0.139386
     99 H43        -2.2510   -2.2790    6.6350 ha        1 MOL      0.096492
    100 H44        -1.2700    1.4590    4.6530 ha        1 MOL      0.096492
    101 H45        -1.3860    1.2720    6.8490 ho        1 MOL      0.343059
    102 N10         0.7860   -2.2690    1.9120 n         1 MOL     -0.279710
    103 C34         2.1590   -1.7570    1.9010 c3        1 MOL      0.333709
    104 C35         2.8690   -2.1070    0.5700 c         1 MOL      0.203605
    105 O15         3.6420   -1.3170    0.0870 o         1 MOL     -0.381800
    106 C36         2.9600   -2.2170    3.1000 c3        1 MOL      0.076193
    107 C37         2.3320   -1.8420    4.4950 c3        1 MOL      0.076807
    108 C38         4.4360   -1.6930    2.9980 c3        1 MOL     -0.313780
    109 C39         2.0950   -0.3620    4.7990 c3        1 MOL     -0.528297
    110 H46         0.6530   -3.1400    2.4080 hn        1 MOL      0.199567
    111 H47         2.0730   -0.6680    1.9930 h1        1 MOL     -0.065995
    112 H48         3.1120   -3.3080    3.0650 hc        1 MOL     -0.060710
    113 H49         3.0710   -2.1430    5.2440 hc        1 MOL      0.014720
    114 H50         1.4500   -2.4450    4.6520 hc        1 MOL      0.014720
    115 H51         4.4790   -0.7350    2.4720 hc        1 MOL      0.093498
    116 H52         4.7760   -1.5280    4.0300 hc        1 MOL      0.093498
    117 H53         5.0270   -2.4800    2.5450 hc        1 MOL      0.093498
    118 H54         1.1500   -0.0480    4.3570 hc        1 MOL      0.135574
    119 H55         1.9780   -0.3220    5.8840 hc        1 MOL      0.135574
    120 H56         3.0160    0.1850    4.5990 hc        1 MOL      0.135574
    121 N11         2.6310   -3.2500   -0.0360 n         1 MOL     -0.082298
    122 C40         3.3970   -3.6560   -1.2390 c3        1 MOL     -0.418251
    123 C41         4.9080   -3.8360   -1.2160 c         1 MOL      0.573716
    124 O16         5.5280   -3.6600   -2.2570 o         1 MOL     -0.517277
    125 C42         2.7730   -4.9550   -1.8470 c3        1 MOL      0.256482
    126 O17         2.8850   -6.0220   -0.9400 oh        1 MOL     -0.645089
    127 H57         2.1620   -4.0180    0.4360 hn        1 MOL      0.233593
    128 H58         3.2550   -2.8660   -1.9880 h1        1 MOL      0.174185
    129 H59         3.1880   -5.2730   -2.8040 h1        1 MOL      0.057410
    130 H60         1.7410   -4.7660   -2.1050 h1        1 MOL      0.057410
    131 H61         3.2720   -6.7940   -1.3550 ho        1 MOL      0.415375
    132 N12         5.5590   -4.0090   -0.0670 n         1 MOL     -0.398448
    133 C43         6.9740   -3.8960    0.2870 c3        1 MOL      0.305868
    134 C44         7.6640   -2.6630   -0.3130 c         1 MOL      0.461212
    135 O18         8.7610   -2.7040   -0.8640 o         1 MOL     -0.512653
    136 C45         7.6200   -5.1910   -0.1750 c3        1 MOL     -0.480863
    137 H62         4.9660   -4.2570    0.7060 hn        1 MOL      0.260571
    138 H63         6.9600   -3.8050    1.3700 h1        1 MOL      0.015799
    139 H64         8.6630   -5.1550    0.1180 hc        1 MOL      0.131156
    140 H65         7.0270   -5.9700    0.3050 hc        1 MOL      0.131156
    141 H66         7.6370   -5.2540   -1.2690 hc        1 MOL      0.131156
    142 N13         7.0110   -1.5240   -0.0770 n         1 MOL     -0.565796
    143 C46         7.3930   -0.2460   -0.7150 c3        1 MOL      0.574601
    144 C47         6.9820    0.9750    0.0810 c         1 MOL      0.160207
    145 O19         6.1360    0.8450    1.0420 o         1 MOL     -0.314098
    146 C48         6.6770   -0.0970   -2.0040 c3        1 MOL     -0.390254
    147 H67         6.1640   -1.5350    0.4730 hn        1 MOL      0.169030
    148 H68         8.4430   -0.0940   -0.9320 h1        1 MOL     -0.030711
    149 H69         7.2730    0.6120   -2.5890 hc        1 MOL      0.104120
    150 H70         6.7350   -1.0680   -2.4980 hc        1 MOL      0.104120
    151 H71         5.6400    0.2020   -1.8430 hc        1 MOL      0.104120
    152 N14         7.6290    2.1260   -0.1440 n         1 MOL     -0.527840
    153 C49         7.4880    3.3770    0.6340 c3        1 MOL      0.173395
    154 C50         7.6940    3.1030    2.1850 c         1 MOL      0.338278
    155 O20         6.8770    3.4560    3.0290 o         1 MOL     -0.458036
    156 C51         6.1640    3.9550    0.2760 c3        1 MOL      0.057648
    157 C52         5.8000    4.2800   -1.1900 c3        1 MOL     -0.077069
    158 C53         4.4590    5.0990   -1.2950 c         1 MOL      0.612413
    159 O21         3.3890    4.5840   -0.9180 o         1 MOL     -0.656544
    160 O22         4.5250    6.2410   -1.8220 o         1 MOL     -0.656544
    161 H72         8.2610    2.2710   -0.9230 hn        1 MOL      0.344299
    162 H73         8.3200    4.0020    0.3190 h1        1 MOL      0.028837
    163 H74         6.1850    4.8780    0.8580 hc        1 MOL     -0.038691
    164 H75         5.4190    3.3000    0.7440 hc        1 MOL     -0.038691
    165 H76         5.5580    3.3080   -1.6180 hc        1 MOL     -0.008509
    166 H77         6.5640    4.7460   -1.8150 hc        1 MOL     -0.008509
    167 N15         8.7920    2.4070    2.4650 n         1 MOL     -0.305417
    168 C54         8.9050    1.8440    3.8510 c3        1 MOL     -0.051030
    169 H78         7.9960    2.0690    4.4100 h1        1 MOL      0.065782
    170 H79         9.0370    0.7640    3.7950 h1        1 MOL      0.065782
    171 H80         9.7610    2.2900    4.3570 h1        1 MOL      0.065782
    172 H81         9.4930    2.1860    1.7760 hn        1 MOL      0.257238
    173 Ca1         1.2550    3.4350   -0.2480 Ca        1 MOL      1.748890
    174 O23         1.1950    6.1000    0.3880 oh        1 MOL     -0.792570
    175 H82         0.5750    6.2900    1.0910 ho        1 MOL      0.393443
    176 H83         2.0010    6.5480    0.6540 ho        1 MOL      0.393443
    177 O24         2.1750    4.0690    2.2250 oh        1 MOL     -0.792570
    178 H84         2.6760    3.3810    2.6650 ho        1 MOL      0.393443
    179 H85         2.5840    4.8810    2.5130 ho        1 MOL      0.393443
    180 O25         3.2020    1.5210    0.1880 oh        1 MOL     -0.792570
    181 H86         4.1580    1.5910    0.2840 ho        1 MOL      0.393443
    182 H87         3.0320    0.5830    0.2780 ho        1 MOL      0.393443
    183 O26         0.2030    4.8650   -2.1860 oh        1 MOL     -0.792570
    184 H88         0.1500    4.4300   -3.0350 ho        1 MOL      0.393443
    185 H89         0.4340    5.7730   -2.3840 ho        1 MOL      0.393443
    186 O27         0.6620    1.7980    1.6460 oh        1 MOL     -0.792570
    187 H90         0.2870    0.9180    1.5710 ho        1 MOL      0.393443
    188 H91         0.3670    2.1100    2.4960 ho        1 MOL      0.393443
@<TRIPOS>BOND
     1    1    2 1   
     2    1    4 1   
     3    1    5 1   
     4    1    6 1   
     5    2    3 2   
     6    2    7 1   
     7    7    8 1   
     8    7   15 1   
     9    8    9 1   
    10    8   11 1   
    11    8   16 1   
    12    9   10 2   
    13    9   19 1   
    14   11   12 1   
    15   11   17 1   
    16   11   18 1   
    17   12   13 1   
    18   12   14 1   
    19   19   20 1   
    20   19   28 1   
    21   20   21 1   
    22   20   23 1   
    23   20   29 1   
    24   21   22 2   
    25   21   41 1   
    26   23   24 1   
    27   23   30 1   
    28   23   31 1   
    29   24   25 1   
    30   24   32 1   
    31   24   33 1   
    32   25   26 1   
    33   25   34 1   
    34   25   35 1   
    35   26   27 1   
    36   26   36 1   
    37   26   37 1   
    38   27   38 1   
    39   27   39 1   
    40   27   40 1   
    41   41   42 1   
    42   41   49 1   
    43   42   43 1   
    44   42   45 1   
    45   42   50 1   
    46   43   44 2   
    47   43   53 1   
    48   45   46 1   
    49   45   51 1   
    50   45   52 1   
    51   46   47 1   
    52   46   48 1   
    53   53   54 1   
    54   53   57 1   
    55   54   55 1   
    56   54   58 1   
    57   54   59 1   
    58   55   56 2   
    59   55   60 1   
    60   60   61 1   
    61   60   68 1   
    62   61   62 1   
    63   61   64 1   
    64   61   69 1   
    65   62   63 2   
    66   62   74 1   
    67   64   65 1   
    68   64   70 1   
    69   64   71 1   
    70   65   66 1   
    71   65   67 2   
    72   66   72 1   
    73   66   73 1   
    74   74   75 1   
    75   74   78 1   
    76   75   76 1   
    77   75   79 1   
    78   75   80 1   
    79   76   77 2   
    80   76   81 1   
    81   81   82 1   
    82   81   93 1   
    83   82   83 1   
    84   82   85 1   
    85   82   94 1   
    86   83   84 2   
    87   83  102 1   
    88   85   86 1   
    89   85   95 1   
    90   85   96 1   
    91   86   87 ar  
    92   86   88 ar  
    93   87   89 ar  
    94   87   97 1   
    95   88   90 ar  
    96   88   98 1   
    97   89   91 ar  
    98   89   99 1   
    99   90   91 ar  
   100   90  100 1   
   101   91   92 1   
   102   92  101 1   
   103  102  103 1   
   104  102  110 1   
   105  103  104 1   
   106  103  106 1   
   107  103  111 1   
   108  104  105 2   
   109  104  121 1   
   110  106  107 1   
   111  106  108 1   
   112  106  112 1   
   113  107  109 1   
   114  107  113 1   
   115  107  114 1   
   116  108  115 1   
   117  108  116 1   
   118  108  117 1   
   119  109  118 1   
   120  109  119 1   
   121  109  120 1   
   122  121  122 1   
   123  121  127 1   
   124  122  123 1   
   125  122  125 1   
   126  122  128 1   
   127  123  124 2   
   128  123  132 1   
   129  125  126 1   
   130  125  129 1   
   131  125  130 1   
   132  126  131 1   
   133  132  133 1   
   134  132  137 1   
   135  133  134 1   
   136  133  136 1   
   137  133  138 1   
   138  134  135 2   
   139  134  142 1   
   140  136  139 1   
   141  136  140 1   
   142  136  141 1   
   143  142  143 1   
   144  142  147 1   
   145  143  144 1   
   146  143  146 1   
   147  143  148 1   
   148  144  145 2   
   149  144  152 1   
   150  146  149 1   
   151  146  150 1   
   152  146  151 1   
   153  152  153 1   
   154  152  161 1   
   155  153  154 1   
   156  153  156 1   
   157  153  162 1   
   158  154  155 2   
   159  154  167 1   
   160  156  157 1   
   161  156  163 1   
   162  156  164 1   
   163  157  158 1   
   164  157  165 1   
   165  157  166 1   
   166  158  159 1   
   167  158  160 1   
   168  167  168 1   
   169  167  172 1   
   170  168  169 1   
   171  168  170 1   
   172  168  171 1   
   173  174  175 1   
   174  174  176 1   
   175  177  178 1   
   176  177  179 1   
   177  180  181 1   
   178  180  182 1   
   179  183  184 1   
   180  183  185 1   
   181  186  187 1   
   182  186  188 1   
@<TRIPOS>SUBSTRUCTURE
     1 MOL         1 TEMP              0 ****  ****    0 ROOT
