@<TRIPOS>MOLECULE
MOL
  192   187     1     0     0
SMALL
resp


@<TRIPOS>ATOM
      1 C1          3.3440    5.7810    2.8990 c3        1 MOL     -0.047427
      2 C2          2.1760    5.6480    1.8920 c         1 MOL      0.566661
      3 O1          1.3970    4.6910    2.0370 o         1 MOL     -0.505292
      4 H1          3.1990    5.0730    3.7160 hc        1 MOL     -0.005628
      5 H2          4.2860    5.5660    2.3950 hc        1 MOL     -0.005628
      6 H3          3.3670    6.7950    3.2980 hc        1 MOL     -0.005628
      7 N1          2.2170    6.4320    0.8320 n         1 MOL     -0.397739
      8 C3          1.5120    6.3340   -0.4500 c3        1 MOL      0.190044
      9 C4         -0.0100    6.1090   -0.3050 c         1 MOL      0.491290
     10 O2         -0.6170    5.3100   -1.1520 o         1 MOL     -0.513007
     11 C5          2.2470    5.3920   -1.4570 c3        1 MOL     -0.568228
     12 C6          3.7250    5.2100   -1.2240 c         1 MOL      1.070848
     13 O3          4.5760    6.1430   -1.4120 o         1 MOL     -0.862659
     14 O4          4.1550    4.0770   -0.8990 o         1 MOL     -0.862659
     15 H4          2.9290    7.1470    0.8340 hn        1 MOL      0.195328
     16 H5          1.6170    7.3550   -0.8390 h1        1 MOL      0.022355
     17 H6          1.9780    5.6810   -2.4710 hc        1 MOL      0.172716
     18 H7          1.7860    4.4500   -1.1660 hc        1 MOL      0.172716
     19 N2         -0.5820    6.6100    0.7590 n         1 MOL     -0.396325
     20 C7         -2.0130    6.4480    1.1100 c3        1 MOL      0.011020
     21 C8         -2.9610    6.9620    0.0350 c         1 MOL      0.330748
     22 O5         -2.5720    7.7650   -0.8430 o         1 MOL     -0.545149
     23 C9         -2.3440    7.1690    2.4870 c3        1 MOL      0.225822
     24 C10        -2.5210    8.7610    2.4810 c3        1 MOL     -0.044025
     25 C11        -1.5200    6.6580    3.6930 c3        1 MOL     -0.096824
     26 C12        -3.0750    9.3960    3.8150 c3        1 MOL     -0.173748
     27 H8         -0.0580    7.3630    1.2050 hn        1 MOL      0.218034
     28 H9         -2.2730    5.3940    1.1700 h1        1 MOL      0.082241
     29 H10        -3.3720    6.8960    2.7540 hc        1 MOL      0.027661
     30 H11        -3.2060    8.9680    1.6570 hc        1 MOL      0.021643
     31 H12        -1.6140    9.2970    2.1960 hc        1 MOL      0.021643
     32 H13        -1.6060    5.5770    3.8110 hc        1 MOL      0.002808
     33 H14        -0.4920    6.9780    3.5040 hc        1 MOL      0.002808
     34 H15        -1.8610    7.0640    4.6450 hc        1 MOL      0.002808
     35 H16        -3.4350   10.4110    3.6450 hc        1 MOL      0.040019
     36 H17        -3.8650    8.7590    4.2090 hc        1 MOL      0.040019
     37 H18        -2.2820    9.3670    4.5690 hc        1 MOL      0.040019
     38 N3         -4.2410    6.5600   -0.0890 n         1 MOL     -0.404347
     39 C13        -4.9380    5.5450    0.6850 c3        1 MOL      0.244010
     40 C14        -4.7390    4.1380    0.0720 c         1 MOL      0.488509
     41 O6         -5.1690    3.1470    0.6380 o         1 MOL     -0.582647
     42 C15        -6.3850    5.9530    0.9820 c3        1 MOL     -0.415281
     43 C16        -7.1180    6.2070   -0.3280 c         1 MOL      0.841947
     44 O7         -8.1830    6.8740   -0.2800 o         1 MOL     -0.738889
     45 O8         -6.6360    5.9630   -1.4360 o         1 MOL     -0.738889
     46 H19        -4.6530    6.9550   -0.9110 hn        1 MOL      0.317699
     47 H20        -4.5100    5.4680    1.6850 h1        1 MOL     -0.031008
     48 H21        -6.3880    6.8060    1.6480 hc        1 MOL      0.083417
     49 H22        -6.9050    5.1340    1.4680 hc        1 MOL      0.083417
     50 N4         -4.1150    3.9550   -1.0870 n         1 MOL     -0.256441
     51 C17        -3.6510    2.7370   -1.7340 c3        1 MOL     -0.206914
     52 C18        -4.7560    2.0650   -2.4760 c         1 MOL      0.548324
     53 O9         -5.7700    2.6640   -2.8980 o         1 MOL     -0.508142
     54 H23        -3.7790    4.8110   -1.5150 hn        1 MOL      0.283891
     55 H24        -3.4110    1.9460   -1.0280 h1        1 MOL      0.104774
     56 H25        -2.7620    2.9370   -2.3310 h1        1 MOL      0.104774
     57 N5         -4.6200    0.7460   -2.7070 n         1 MOL     -0.465895
     58 C19        -5.5910   -0.1350   -3.3920 c3        1 MOL      0.120124
     59 C20        -6.6550   -0.6600   -2.4820 c         1 MOL      0.358507
     60 O10        -7.6710   -1.1390   -2.9850 o         1 MOL     -0.552302
     61 C21        -4.9070   -1.4110   -3.9570 c3        1 MOL     -0.160390
     62 C22        -3.7640   -1.9270   -3.0910 c         1 MOL      0.520940
     63 O11        -2.6930   -2.3790   -3.6360 o         1 MOL     -0.610238
     64 O12        -3.9450   -1.8690   -1.8610 o         1 MOL     -0.610238
     65 H26        -3.9110    0.2360   -2.2010 hn        1 MOL      0.286708
     66 H27        -5.9710    0.3960   -4.2700 h1        1 MOL      0.081385
     67 H28        -4.4450   -1.1610   -4.9140 hc        1 MOL      0.027946
     68 H29        -5.6980   -2.1180   -4.2090 hc        1 MOL      0.027946
     69 N6         -6.5410   -0.5140   -1.1720 n         1 MOL     -0.213429
     70 C23        -7.4780   -1.1510   -0.1770 c3        1 MOL     -0.168545
     71 C24        -7.1390   -2.6670    0.0420 c         1 MOL      0.438172
     72 O13        -7.9120   -3.3610    0.6340 o         1 MOL     -0.551092
     73 H30        -5.6770   -0.0540   -0.9450 hn        1 MOL      0.259806
     74 H31        -8.5410   -1.0050   -0.3670 h1        1 MOL      0.119405
     75 H32        -7.3260   -0.6410    0.7800 h1        1 MOL      0.119405
     76 N7         -5.9400   -3.1480   -0.4380 n         1 MOL     -0.053851
     77 C25        -5.4780   -4.5480   -0.4350 c3        1 MOL      0.054743
     78 C26        -5.2350   -5.0770    1.0470 c         1 MOL      0.375093
     79 O14        -5.3340   -6.3510    1.2710 o         1 MOL     -0.501201
     80 C27        -6.3100   -5.4120   -1.3520 c3        1 MOL      0.001407
     81 C28        -6.5060   -4.8540   -2.7950 c3        1 MOL     -0.070338
     82 C29        -6.9340   -5.8990   -3.7560 c         1 MOL      0.613570
     83 N8         -7.6710   -5.5410   -4.8170 n         1 MOL     -0.835683
     84 O15        -6.6970   -7.0560   -3.5980 o         1 MOL     -0.554579
     85 H33        -5.3350   -2.4750   -0.8900 hn        1 MOL      0.025654
     86 H34        -4.5160   -4.5440   -0.9550 h1        1 MOL      0.116763
     87 H35        -7.3310   -5.4610   -0.9510 hc        1 MOL      0.018671
     88 H36        -5.8980   -6.4190   -1.3550 hc        1 MOL      0.018671
     89 H37        -5.5610   -4.4590   -3.1500 hc        1 MOL      0.064296
     90 H38        -7.1870   -4.0070   -2.9280 hc        1 MOL      0.064296
     91 H39        -7.7570   -4.5850   -5.1380 hn        1 MOL      0.356427
     92 H40        -8.0820   -6.2850   -5.3690 hn        1 MOL      0.356427
     93 N9         -4.8410   -4.3240    2.1340 n         1 MOL     -0.385105
     94 C30        -4.4090   -4.8050    3.4720 c3        1 MOL     -0.014488
     95 C31        -2.9820   -4.3560    3.8820 c         1 MOL      0.460861
     96 O16        -2.5280   -4.6790    4.9780 o         1 MOL     -0.567549
     97 C32        -5.4060   -4.4100    4.6100 c3        1 MOL      0.382806
     98 C33        -5.6630   -2.8880    4.6600 c3        1 MOL     -0.399311
     99 C34        -6.6360   -5.2770    4.3920 c3        1 MOL     -0.399311
    100 H41        -4.7550   -3.3520    1.8660 hn        1 MOL      0.201948
    101 H42        -4.3840   -5.8910    3.5790 h1        1 MOL      0.103033
    102 H43        -4.9750   -4.7070    5.5610 hc        1 MOL     -0.049633
    103 H44        -4.7250   -2.3310    4.6920 hc        1 MOL      0.090601
    104 H45        -6.2740   -2.4870    3.8540 hc        1 MOL      0.090601
    105 H46        -6.2120   -2.6650    5.5770 hc        1 MOL      0.090601
    106 H47        -7.3360   -5.0930    5.2070 hc        1 MOL      0.090601
    107 H48        -7.2000   -4.9800    3.5110 hc        1 MOL      0.090601
    108 H49        -6.3690   -6.3270    4.2420 hc        1 MOL      0.090601
    109 N10        -2.3190   -3.6000    2.9960 n         1 MOL     -0.331554
    110 C35        -0.9580   -3.1140    3.0250 c3        1 MOL      0.203531
    111 C36        -0.2100   -3.1480    1.6750 c         1 MOL      0.435487
    112 O17        -0.9040   -3.5210    0.7100 o         1 MOL     -0.518629
    113 C37        -0.9420   -1.6480    3.4500 c3        1 MOL     -0.023679
    114 C38         0.0210   -1.3750    4.5180 c         1 MOL      0.600755
    115 N11        -0.4380   -1.1580    5.7130 n         1 MOL     -0.778132
    116 O18         1.1860   -1.2010    4.2770 o         1 MOL     -0.554869
    117 H50        -2.7930   -3.4660    2.1090 hn        1 MOL      0.226513
    118 H51        -0.4060   -3.6890    3.7690 h1        1 MOL      0.041582
    119 H52        -1.9240   -1.3500    3.7860 hc        1 MOL      0.010778
    120 H53        -0.5960   -1.0070    2.6350 hc        1 MOL      0.010778
    121 H54        -1.4300   -1.0300    5.8240 hn        1 MOL      0.362344
    122 H55         0.2900   -0.7570    6.2910 hn        1 MOL      0.362344
    123 N12         1.0990   -2.8270    1.5910 n         1 MOL     -0.552823
    124 C39         1.9320   -3.0980    0.4640 c3        1 MOL      0.522339
    125 C40         3.2980   -3.6160    0.9010 c         1 MOL      0.300438
    126 O19         3.8150   -3.1600    1.9220 o         1 MOL     -0.454165
    127 C41         1.9610   -1.9030   -0.4790 c3        1 MOL     -0.110846
    128 C42         2.3860   -2.3800   -1.8440 ca        1 MOL     -0.123182
    129 C43         3.5110   -1.9130   -2.5310 ca        1 MOL     -0.039813
    130 C44         1.5340   -3.2560   -2.5330 ca        1 MOL     -0.039813
    131 C45         3.8620   -2.4280   -3.8340 ca        1 MOL     -0.313284
    132 C46         1.8500   -3.8290   -3.7590 ca        1 MOL     -0.313284
    133 C47         3.0770   -3.4270   -4.4740 ca        1 MOL      0.348115
    134 O20         3.4450   -3.8350   -5.7030 oh        1 MOL     -0.459569
    135 H56         1.5970   -2.4820    2.3980 hn        1 MOL      0.221099
    136 H57         1.3520   -3.8800   -0.0250 h1        1 MOL     -0.004259
    137 H58         2.7060   -1.1880   -0.1590 hc        1 MOL      0.094054
    138 H59         0.9970   -1.3860   -0.4970 hc        1 MOL      0.094054
    139 H60         4.1270   -1.1200   -2.1400 ha        1 MOL      0.116797
    140 H61         0.6490   -3.6170   -2.0280 ha        1 MOL      0.116797
    141 H62         4.7650   -2.0420   -4.2770 ha        1 MOL      0.159192
    142 H63         1.3020   -4.6270   -4.2440 ha        1 MOL      0.159192
    143 H64         4.2630   -3.3950   -5.9570 ho        1 MOL      0.331246
    144 N13         3.9150   -4.5250    0.1200 n         1 MOL     -0.613507
    145 C48         5.3240   -5.0120    0.2890 c3        1 MOL      0.451993
    146 C49         6.1830   -4.3510   -0.7900 c         1 MOL      0.415807
    147 O21         6.4860   -4.9630   -1.8560 o         1 MOL     -0.559273
    148 C50         5.4000   -6.5530    0.1240 c3        1 MOL      0.074246
    149 C51         6.8100   -7.0350    0.5470 c3        1 MOL     -0.274123
    150 C52         7.0510   -8.5430    0.5080 c         1 MOL      0.698322
    151 O22         6.5480   -9.2620   -0.4060 o         1 MOL     -0.703300
    152 O23         7.7770   -8.9890    1.4470 o         1 MOL     -0.703300
    153 H65         3.3730   -4.9630   -0.6060 hn        1 MOL      0.301089
    154 H66         5.6750   -4.7780    1.2840 h1        1 MOL      0.007816
    155 H67         5.0280   -6.8150   -0.8670 hc        1 MOL     -0.018715
    156 H68         4.6520   -6.9530    0.8170 hc        1 MOL     -0.018715
    157 H69         6.9570   -6.6250    1.5380 hc        1 MOL      0.057719
    158 H70         7.5080   -6.4880   -0.1000 hc        1 MOL      0.057719
    159 N14         6.6090   -3.0970   -0.7070 n         1 MOL     -0.514572
    160 C53         6.4090   -2.1340    0.3510 c3        1 MOL      0.132290
    161 C54         7.0430   -2.6500    1.6960 c         1 MOL      0.534506
    162 O24         8.0600   -3.3460    1.6100 o         1 MOL     -0.557506
    163 C55         7.0690   -0.7840    0.0980 c3        1 MOL     -0.103130
    164 C56         6.0740    0.1070   -0.6700 c3        1 MOL     -0.158596
    165 C57         6.6030    1.5090   -0.7840 c         1 MOL      0.840892
    166 O25         6.5570    2.2860    0.1880 o         1 MOL     -0.764984
    167 O26         6.7510    1.9870   -1.8960 o         1 MOL     -0.764984
    168 H71         7.0740   -2.8050   -1.5660 hn        1 MOL      0.324742
    169 H72         5.3300   -2.0630    0.4770 h1        1 MOL     -0.009898
    170 H73         7.9860   -0.9580   -0.4690 hc        1 MOL      0.017891
    171 H74         7.2580   -0.3420    1.0830 hc        1 MOL      0.017891
    172 H75         5.1420    0.2030   -0.1070 hc        1 MOL      0.037847
    173 H76         6.0100   -0.2040   -1.7040 hc        1 MOL      0.037847
    174 N15         6.3220   -2.4420    2.8230 n         1 MOL     -0.267106
    175 C58         6.8150   -2.9830    4.0640 c3        1 MOL     -0.180012
    176 H77         6.0580   -3.6330    4.5030 h1        1 MOL      0.076767
    177 H78         7.7220   -3.5580    3.8770 h1        1 MOL      0.076767
    178 H79         7.0370   -2.1680    4.7540 h1        1 MOL      0.076767
    179 H80         5.3960   -2.0410    2.7550 hn        1 MOL      0.247357
    180 Ca1         6.6670    4.7400   -1.0700 Ca        1 MOL      1.711766
    181 O27         8.9830    4.2400   -2.5760 oh        1 MOL     -0.850641
    182 H81         9.1710    4.8710   -3.2770 ho        1 MOL      0.402973
    183 H82         9.5290    3.4800   -2.7920 ho        1 MOL      0.402973
    184 O28         6.1070    4.9980   -3.5750 oh        1 MOL     -0.850641
    185 H83         6.6640    5.0720   -4.3480 ho        1 MOL      0.402973
    186 H84         5.2910    4.6130   -3.8900 ho        1 MOL      0.402973
    187 O29         7.8600    6.9960   -1.0820 oh        1 MOL     -0.850641
    188 H85         8.7150    7.4290   -1.0870 ho        1 MOL      0.402973
    189 H86         7.2300    7.6890   -0.9120 ho        1 MOL      0.402973
    190 O30         9.2180    4.6390    0.3790 oh        1 MOL     -0.850641
    191 H87         9.8840    5.1810    0.8030 ho        1 MOL      0.402973
    192 H88         9.6660    4.2600   -0.3770 ho        1 MOL      0.402973
@<TRIPOS>BOND
     1    1    2 1   
     2    1    4 1   
     3    1    5 1   
     4    1    6 1   
     5    2    3 2   
     6    2    7 1   
     7    7    8 1   
     8    7   15 1   
     9    8    9 1   
    10    8   11 1   
    11    8   16 1   
    12    9   10 2   
    13    9   19 1   
    14   11   12 1   
    15   11   17 1   
    16   11   18 1   
    17   12   13 1   
    18   12   14 1   
    19   19   20 1   
    20   19   27 1   
    21   20   21 1   
    22   20   23 1   
    23   20   28 1   
    24   21   22 2   
    25   21   38 1   
    26   23   24 1   
    27   23   25 1   
    28   23   29 1   
    29   24   26 1   
    30   24   30 1   
    31   24   31 1   
    32   25   32 1   
    33   25   33 1   
    34   25   34 1   
    35   26   35 1   
    36   26   36 1   
    37   26   37 1   
    38   38   39 1   
    39   38   46 1   
    40   39   40 1   
    41   39   42 1   
    42   39   47 1   
    43   40   41 2   
    44   40   50 1   
    45   42   43 1   
    46   42   48 1   
    47   42   49 1   
    48   43   44 1   
    49   43   45 1   
    50   50   51 1   
    51   50   54 1   
    52   51   52 1   
    53   51   55 1   
    54   51   56 1   
    55   52   53 2   
    56   52   57 1   
    57   57   58 1   
    58   57   65 1   
    59   58   59 1   
    60   58   61 1   
    61   58   66 1   
    62   59   60 2   
    63   59   69 1   
    64   61   62 1   
    65   61   67 1   
    66   61   68 1   
    67   62   63 1   
    68   62   64 1   
    69   69   70 1   
    70   69   73 1   
    71   70   71 1   
    72   70   74 1   
    73   70   75 1   
    74   71   72 2   
    75   71   76 1   
    76   76   77 1   
    77   76   85 1   
    78   77   78 1   
    79   77   80 1   
    80   77   86 1   
    81   78   79 2   
    82   78   93 1   
    83   80   81 1   
    84   80   87 1   
    85   80   88 1   
    86   81   82 1   
    87   81   89 1   
    88   81   90 1   
    89   82   83 1   
    90   82   84 2   
    91   83   91 1   
    92   83   92 1   
    93   93   94 1   
    94   93  100 1   
    95   94   95 1   
    96   94   97 1   
    97   94  101 1   
    98   95   96 2   
    99   95  109 1   
   100   97   98 1   
   101   97   99 1   
   102   97  102 1   
   103   98  103 1   
   104   98  104 1   
   105   98  105 1   
   106   99  106 1   
   107   99  107 1   
   108   99  108 1   
   109  109  110 1   
   110  109  117 1   
   111  110  111 1   
   112  110  113 1   
   113  110  118 1   
   114  111  112 2   
   115  111  123 1   
   116  113  114 1   
   117  113  119 1   
   118  113  120 1   
   119  114  115 1   
   120  114  116 2   
   121  115  121 1   
   122  115  122 1   
   123  123  124 1   
   124  123  135 1   
   125  124  125 1   
   126  124  127 1   
   127  124  136 1   
   128  125  126 2   
   129  125  144 1   
   130  127  128 1   
   131  127  137 1   
   132  127  138 1   
   133  128  129 ar  
   134  128  130 ar  
   135  129  131 ar  
   136  129  139 1   
   137  130  132 ar  
   138  130  140 1   
   139  131  133 ar  
   140  131  141 1   
   141  132  133 ar  
   142  132  142 1   
   143  133  134 1   
   144  134  143 1   
   145  144  145 1   
   146  144  153 1   
   147  145  146 1   
   148  145  148 1   
   149  145  154 1   
   150  146  147 2   
   151  146  159 1   
   152  148  149 1   
   153  148  155 1   
   154  148  156 1   
   155  149  150 1   
   156  149  157 1   
   157  149  158 1   
   158  150  151 1   
   159  150  152 1   
   160  159  160 1   
   161  159  168 1   
   162  160  161 1   
   163  160  163 1   
   164  160  169 1   
   165  161  162 2   
   166  161  174 1   
   167  163  164 1   
   168  163  170 1   
   169  163  171 1   
   170  164  165 1   
   171  164  172 1   
   172  164  173 1   
   173  165  166 1   
   174  165  167 1   
   175  174  175 1   
   176  174  179 1   
   177  175  176 1   
   178  175  177 1   
   179  175  178 1   
   180  181  182 1   
   181  181  183 1   
   182  184  185 1   
   183  184  186 1   
   184  187  188 1   
   185  187  189 1   
   186  190  191 1   
   187  190  192 1   
@<TRIPOS>SUBSTRUCTURE
     1 MOL         1 TEMP              0 ****  ****    0 ROOT
