@<TRIPOS>MOLECULE
MOL
  181   177     1     0     0
SMALL
resp


@<TRIPOS>ATOM
      1 C1          3.5470   -2.0780    4.6540 c3        1 MOL     -0.406053
      2 C2          4.5750   -1.3270    3.7310 c         1 MOL      0.624120
      3 O1          4.2460   -0.7720    2.7040 o         1 MOL     -0.560139
      4 H1          2.5550   -1.6470    4.5170 hc        1 MOL      0.109654
      5 H2          3.5240   -3.1340    4.3880 hc        1 MOL      0.109654
      6 H3          3.8480   -1.9710    5.6960 hc        1 MOL      0.109654
      7 N1          5.8600   -1.3900    3.9800 n         1 MOL     -0.461537
      8 C3          6.9030   -0.6500    3.2290 c3        1 MOL      0.076211
      9 C4          7.1350   -1.3820    1.9110 c         1 MOL      0.648262
     10 O2          7.3530   -0.7110    0.8630 o         1 MOL     -0.497474
     11 C5          8.2220   -0.5040    4.0320 c3        1 MOL     -0.128303
     12 C6          9.3490    0.3480    3.4010 c         1 MOL      0.641205
     13 O3         10.4990   -0.1560    3.2590 o         1 MOL     -0.699401
     14 O4          9.0230    1.5140    2.9300 o         1 MOL     -0.699401
     15 H4          6.0960   -1.8600    4.8450 hn        1 MOL      0.245829
     16 H5          6.5110    0.3330    2.9830 h1        1 MOL      0.076333
     17 H6          8.5480   -1.5100    4.2980 hc        1 MOL     -0.016857
     18 H7          8.0060   -0.0720    5.0130 hc        1 MOL     -0.016857
     19 N2          7.0840   -2.7480    1.8770 n         1 MOL     -0.532192
     20 C7          7.4060   -3.6110    0.7650 c3        1 MOL      0.440469
     21 C8          6.7160   -3.1540   -0.5900 c         1 MOL      0.217380
     22 O5          7.3510   -2.8370   -1.5960 o         1 MOL     -0.437965
     23 C9          8.9240   -3.8310    0.7000 c3        1 MOL     -0.402995
     24 H8          6.7040   -3.2630    2.6560 hn        1 MOL      0.226276
     25 H9          6.9530   -4.5580    1.0660 h1        1 MOL     -0.033921
     26 H10         9.4550   -2.9770    0.2660 hc        1 MOL      0.101092
     27 H11         9.2880   -4.0340    1.7050 hc        1 MOL      0.101092
     28 H12         9.1270   -4.7360    0.1260 hc        1 MOL      0.101092
     29 N3          5.3750   -3.2120   -0.5830 n         1 MOL     -0.385034
     30 C10         4.4450   -2.7320   -1.6270 c3        1 MOL      0.084684
     31 C11         4.7100   -1.2790   -2.0420 c         1 MOL      0.369137
     32 O6          4.7210   -1.0210   -3.2320 o         1 MOL     -0.461214
     33 C12         4.4730   -3.8050   -2.8260 c3        1 MOL     -0.097826
     34 C13         3.5790   -3.6360   -4.0270 c         1 MOL      0.571855
     35 O7          3.9610   -3.5150   -5.2080 o         1 MOL     -0.663670
     36 O8          2.2980   -3.6210   -3.8110 o         1 MOL     -0.663670
     37 H13         4.9250   -3.6020    0.2370 hn        1 MOL      0.259130
     38 H14         3.4460   -2.6800   -1.2030 h1        1 MOL      0.024944
     39 H15         4.0740   -4.7770   -2.5200 hc        1 MOL      0.026712
     40 H16         5.4960   -3.9810   -3.1570 hc        1 MOL      0.026712
     41 N4          4.8660   -0.3570   -1.1210 n         1 MOL     -0.005181
     42 C14         5.3400    0.9600   -1.3910 c3        1 MOL     -0.007370
     43 C15         4.4310    2.0130   -2.0460 c         1 MOL      0.517157
     44 O9          4.8570    3.1200   -2.5150 o         1 MOL     -0.565923
     45 H17         4.7620   -0.6930   -0.1800 hn        1 MOL      0.157477
     46 H18         6.2170    0.9320   -2.0430 h1        1 MOL      0.045781
     47 H19         5.6530    1.2760   -0.4010 h1        1 MOL      0.045781
     48 N5          3.1500    1.6450   -2.2420 n         1 MOL     -0.286007
     49 C16         2.1320    2.4160   -2.9010 c3        1 MOL      0.051590
     50 C17         2.0260    3.7700   -2.2190 c         1 MOL      0.407664
     51 O10         2.1140    3.9350   -0.9900 o         1 MOL     -0.468300
     52 C18         0.7970    1.6960   -2.8640 c3        1 MOL     -0.432136
     53 C19         0.7630    0.3370   -3.5440 c         1 MOL      0.761375
     54 N6          0.1250    0.2310   -4.6300 n         1 MOL     -0.775497
     55 O11         1.3030   -0.6790   -3.1060 o         1 MOL     -0.552777
     56 H20         2.7390    0.8440   -1.7860 hn        1 MOL      0.149535
     57 H21         2.4530    2.6060   -3.9250 h1        1 MOL      0.061825
     58 H22         0.1220    2.4250   -3.3290 hc        1 MOL      0.125676
     59 H23         0.4080    1.5640   -1.8490 hc        1 MOL      0.125676
     60 H24        -0.3400    1.0750   -4.9140 hn        1 MOL      0.357337
     61 H25        -0.1100   -0.6520   -5.0510 hn        1 MOL      0.357337
     62 N7          1.8990    4.7740   -3.0440 n         1 MOL     -0.158737
     63 C20         1.7800    6.1440   -2.6000 c3        1 MOL     -0.425501
     64 C21         0.4040    6.5630   -2.1700 c         1 MOL      0.582460
     65 O12        -0.5890    6.0540   -2.6960 o         1 MOL     -0.496097
     66 H26         2.1230    4.5700   -4.0050 hn        1 MOL      0.237193
     67 H27         2.0930    6.7210   -3.4760 h1        1 MOL      0.164864
     68 H28         2.3910    6.3240   -1.7210 h1        1 MOL      0.164864
     69 N8          0.3130    7.6060   -1.2990 n         1 MOL     -0.379062
     70 C22        -0.9100    8.1370   -0.6600 c3        1 MOL     -0.294215
     71 C23        -1.6510    7.1920    0.1880 c         1 MOL      0.457336
     72 O13        -2.8800    7.3510    0.4190 o         1 MOL     -0.575481
     73 C24        -0.7840    9.4810    0.1410 c3        1 MOL      0.499149
     74 C25        -0.1660    9.3150    1.5250 c3        1 MOL     -0.311195
     75 O14        -0.0020   10.3540   -0.5630 oh        1 MOL     -0.653369
     76 H29         1.1540    8.1140   -1.0440 hn        1 MOL      0.243488
     77 H30        -1.6100    8.4020   -1.4490 h1        1 MOL      0.166877
     78 H31        -1.7580    9.9660    0.2060 h1        1 MOL      0.041118
     79 H32         0.9140   10.0710   -0.6320 ho        1 MOL      0.394047
     80 H33         0.8200    8.8750    1.3900 hc        1 MOL      0.068575
     81 H34        -0.1920   10.2640    2.0570 hc        1 MOL      0.068575
     82 H35        -0.7630    8.6010    2.0890 hc        1 MOL      0.068575
     83 N9         -1.0540    6.0170    0.5110 n         1 MOL     -0.132565
     84 C26        -1.7610    4.7840    1.0920 c3        1 MOL      0.064032
     85 C27        -1.6520    3.5440    0.1460 c         1 MOL      0.301333
     86 O15        -1.0250    3.5820   -0.8940 o         1 MOL     -0.350873
     87 C28        -1.3270    4.4090    2.5120 c3        1 MOL     -0.009061
     88 C29         0.2030    4.0970    2.6380 c3        1 MOL     -0.251501
     89 C30        -1.8710    5.5750    3.4490 c3        1 MOL     -0.135685
     90 C31         0.6120    3.5510    4.0390 c3        1 MOL     -0.085558
     91 H36        -0.0900    5.8830    0.2460 hn        1 MOL      0.159214
     92 H37        -2.8410    4.8960    1.2130 h1        1 MOL      0.062638
     93 H38        -1.9530    3.5810    2.8380 hc        1 MOL      0.066566
     94 H39         0.7670    5.0280    2.4930 hc        1 MOL      0.123633
     95 H40         0.4680    3.4270    1.8220 hc        1 MOL      0.123633
     96 H41        -1.1510    6.3800    3.4100 hc        1 MOL      0.029272
     97 H42        -2.8750    5.9060    3.1840 hc        1 MOL      0.029272
     98 H43        -1.8830    5.2010    4.4760 hc        1 MOL      0.029272
     99 H44         1.6910    3.5120    4.1910 hc        1 MOL      0.036426
    100 H45         0.3480    4.2400    4.8450 hc        1 MOL      0.036426
    101 H46         0.1200    2.5960    4.2470 hc        1 MOL      0.036426
    102 N10        -2.3120    2.4760    0.6110 n         1 MOL     -0.416337
    103 C32        -2.2480    1.1600    0.0070 c3        1 MOL      0.056111
    104 C33        -3.6050    0.4120    0.2660 c         1 MOL      0.683921
    105 O16        -3.4700   -0.5770    0.9190 o         1 MOL     -0.549543
    106 C34        -0.9730    0.4680    0.5310 c3        1 MOL     -0.344651
    107 C35        -0.6630   -0.8680   -0.1740 c         1 MOL      0.665164
    108 O17        -1.1080   -1.0680   -1.3050 o         1 MOL     -0.693847
    109 O18         0.3320   -1.5370    0.1110 o         1 MOL     -0.693847
    110 H47        -2.9170    2.6310    1.4020 hn        1 MOL      0.261870
    111 H48        -2.1230    1.1790   -1.0730 h1        1 MOL     -0.000768
    112 H49        -1.2020    0.2760    1.5760 hc        1 MOL      0.148534
    113 H50        -0.1870    1.1660    0.2530 hc        1 MOL      0.148534
    114 N11        -4.7360    0.8550   -0.3100 n         1 MOL     -0.659109
    115 C36        -5.9390   -0.0200   -0.5140 c3        1 MOL      0.322138
    116 C37        -6.3010   -0.8520    0.7760 c         1 MOL      0.165904
    117 O19        -6.3370   -0.2580    1.9220 o         1 MOL     -0.506295
    118 C38        -7.1630    0.7820   -0.9130 c3        1 MOL     -0.234602
    119 C39        -8.3250   -0.0780   -1.3170 ca        1 MOL      0.184113
    120 C40        -8.3440   -0.6370   -2.5900 ca        1 MOL     -0.229359
    121 C41        -9.3510   -0.3730   -0.3830 ca        1 MOL     -0.229359
    122 C42        -9.4450   -1.4560   -2.9210 ca        1 MOL     -0.063815
    123 C43       -10.2790   -1.3240   -0.6400 ca        1 MOL     -0.063815
    124 C44       -10.4210   -1.8240   -1.9600 ca        1 MOL     -0.164343
    125 H51        -4.7370    1.7760   -0.7320 hn        1 MOL      0.340703
    126 H52        -5.6610   -0.6540   -1.3470 h1        1 MOL      0.031315
    127 H53        -6.9880    1.4490   -1.7500 hc        1 MOL      0.089712
    128 H54        -7.5010    1.4000   -0.0740 hc        1 MOL      0.089712
    129 H55        -7.5570   -0.4400   -3.2980 ha        1 MOL      0.143595
    130 H56        -9.3750    0.0520    0.6140 ha        1 MOL      0.143595
    131 H57        -9.5590   -1.7860   -3.9440 ha        1 MOL      0.099467
    132 H58       -10.9610   -1.6160    0.1460 ha        1 MOL      0.099467
    133 H59       -11.0750   -2.6470   -2.1900 ha        1 MOL      0.113467
    134 N12        -6.5330   -2.1840    0.7340 n         1 MOL      0.169114
    135 C45        -6.9740   -2.9650    1.8880 c3        1 MOL     -0.001191
    136 C46        -5.8190   -3.0350    2.9520 c         1 MOL      0.211543
    137 O20        -6.1430   -3.1110    4.1060 o         1 MOL     -0.493194
    138 C47        -7.3270   -4.4320    1.4180 c3        1 MOL     -0.044359
    139 C48        -6.5010   -4.4890    0.0950 c3        1 MOL      0.193580
    140 C49        -6.4160   -3.0170   -0.4090 c3        1 MOL     -0.346328
    141 H60        -7.8290   -2.4420    2.3200 h1        1 MOL      0.068808
    142 H61        -6.9450   -5.2160    2.0700 hc        1 MOL      0.033782
    143 H62        -8.4150   -4.4600    1.3110 hc        1 MOL      0.033782
    144 H63        -5.5100   -4.8680    0.3640 hc        1 MOL     -0.051311
    145 H64        -7.0190   -5.1440   -0.5980 hc        1 MOL     -0.051311
    146 H65        -5.4950   -2.8200   -0.9480 h1        1 MOL      0.079283
    147 H66        -7.2580   -2.8730   -1.0880 h1        1 MOL      0.079283
    148 N13        -4.5540   -3.0100    2.5450 n         1 MOL      0.108541
    149 C50        -3.3140   -3.2400    3.3010 c3        1 MOL     -0.574187
    150 C51        -3.0260   -2.0710    4.2470 c         1 MOL      0.563677
    151 O21        -2.3450   -2.3170    5.2140 o         1 MOL     -0.541313
    152 C52        -2.1210   -3.5160    2.3650 c3        1 MOL      0.280711
    153 C53        -2.1520   -4.8660    1.6850 c3        1 MOL     -0.001967
    154 C54        -0.8180   -5.0580    0.8400 c         1 MOL      0.405412
    155 O22        -0.7300   -4.6250   -0.3680 o         1 MOL     -0.611168
    156 O23         0.2250   -5.3910    1.4760 o         1 MOL     -0.611168
    157 H67        -4.4780   -2.8900    1.5390 hn        1 MOL      0.260501
    158 H68        -3.4460   -4.1200    3.9370 h1        1 MOL      0.210556
    159 H69        -1.1470   -3.4400    2.8560 hc        1 MOL      0.020143
    160 H70        -2.2150   -2.7430    1.6020 hc        1 MOL      0.020143
    161 H71        -3.0150   -4.7660    1.0360 hc        1 MOL     -0.047895
    162 H72        -2.2710   -5.6930    2.3840 hc        1 MOL     -0.047895
    163 N14        -3.6250   -0.8860    4.0480 n         1 MOL     -0.190448
    164 C55        -3.6730    0.1780    5.0560 c3        1 MOL     -0.412645
    165 H73        -4.5230    0.0120    5.7170 h1        1 MOL      0.143662
    166 H74        -2.7530    0.1680    5.6390 h1        1 MOL      0.143662
    167 H75        -3.7800    1.1430    4.5620 h1        1 MOL      0.143662
    168 H76        -4.0720   -0.7160    3.1500 hn        1 MOL      0.261425
    169 Ca1         0.2430   -3.1880   -2.3810 Ca        1 MOL      1.690799
    170 O24        -0.4850   -5.7240   -3.3230 oh        1 MOL     -0.817060
    171 H77        -1.0690   -6.1910   -2.7420 ho        1 MOL      0.392569
    172 H78        -0.0990   -6.4040   -3.8760 ho        1 MOL      0.392569
    173 O25         1.7680   -5.0680   -1.1140 oh        1 MOL     -0.817060
    174 H79         2.4210   -5.7390   -0.9270 ho        1 MOL      0.392569
    175 H80         1.1040   -5.1640   -0.4290 ho        1 MOL      0.392569
    176 O26        -2.5920   -3.5520   -2.7510 oh        1 MOL     -0.817060
    177 H81        -3.0060   -4.1650   -3.3590 ho        1 MOL      0.392569
    178 H82        -3.0750   -3.6740   -1.9230 ho        1 MOL      0.392569
    179 O27        -0.2340   -2.8740   -5.0020 oh        1 MOL     -0.817060
    180 H83         0.5940   -2.8040   -5.4910 ho        1 MOL      0.392569
    181 H84        -0.7550   -3.5040   -5.5130 ho        1 MOL      0.392569
@<TRIPOS>BOND
     1    1    2 1   
     2    1    4 1   
     3    1    5 1   
     4    1    6 1   
     5    2    3 2   
     6    2    7 1   
     7    7    8 1   
     8    7   15 1   
     9    8    9 1   
    10    8   11 1   
    11    8   16 1   
    12    9   10 2   
    13    9   19 1   
    14   11   12 1   
    15   11   17 1   
    16   11   18 1   
    17   12   13 1   
    18   12   14 1   
    19   19   20 1   
    20   19   24 1   
    21   20   21 1   
    22   20   23 1   
    23   20   25 1   
    24   21   22 2   
    25   21   29 1   
    26   23   26 1   
    27   23   27 1   
    28   23   28 1   
    29   29   30 1   
    30   29   37 1   
    31   30   31 1   
    32   30   33 1   
    33   30   38 1   
    34   31   32 2   
    35   31   41 1   
    36   33   34 1   
    37   33   39 1   
    38   33   40 1   
    39   34   35 1   
    40   34   36 1   
    41   41   42 1   
    42   41   45 1   
    43   42   43 1   
    44   42   46 1   
    45   42   47 1   
    46   43   44 2   
    47   43   48 1   
    48   48   49 1   
    49   48   56 1   
    50   49   50 1   
    51   49   52 1   
    52   49   57 1   
    53   50   51 2   
    54   50   62 1   
    55   52   53 1   
    56   52   58 1   
    57   52   59 1   
    58   53   54 1   
    59   53   55 2   
    60   54   60 1   
    61   54   61 1   
    62   62   63 1   
    63   62   66 1   
    64   63   64 1   
    65   63   67 1   
    66   63   68 1   
    67   64   65 2   
    68   64   69 1   
    69   69   70 1   
    70   69   76 1   
    71   70   71 1   
    72   70   73 1   
    73   70   77 1   
    74   71   72 2   
    75   71   83 1   
    76   73   74 1   
    77   73   75 1   
    78   73   78 1   
    79   74   80 1   
    80   74   81 1   
    81   74   82 1   
    82   75   79 1   
    83   83   84 1   
    84   83   91 1   
    85   84   85 1   
    86   84   87 1   
    87   84   92 1   
    88   85   86 2   
    89   85  102 1   
    90   87   88 1   
    91   87   89 1   
    92   87   93 1   
    93   88   90 1   
    94   88   94 1   
    95   88   95 1   
    96   89   96 1   
    97   89   97 1   
    98   89   98 1   
    99   90   99 1   
   100   90  100 1   
   101   90  101 1   
   102  102  103 1   
   103  102  110 1   
   104  103  104 1   
   105  103  106 1   
   106  103  111 1   
   107  104  105 2   
   108  104  114 1   
   109  106  107 1   
   110  106  112 1   
   111  106  113 1   
   112  107  108 1   
   113  107  109 1   
   114  114  115 1   
   115  114  125 1   
   116  115  116 1   
   117  115  118 1   
   118  115  126 1   
   119  116  117 2   
   120  116  134 1   
   121  118  119 1   
   122  118  127 1   
   123  118  128 1   
   124  119  120 ar  
   125  119  121 ar  
   126  120  122 ar  
   127  120  129 1   
   128  121  123 ar  
   129  121  130 1   
   130  122  124 ar  
   131  122  131 1   
   132  123  124 ar  
   133  123  132 1   
   134  124  133 1   
   135  134  135 1   
   136  134  140 1   
   137  135  136 1   
   138  135  138 1   
   139  135  141 1   
   140  136  137 2   
   141  136  148 1   
   142  138  139 1   
   143  138  142 1   
   144  138  143 1   
   145  139  140 1   
   146  139  144 1   
   147  139  145 1   
   148  140  146 1   
   149  140  147 1   
   150  148  149 1   
   151  148  157 1   
   152  149  150 1   
   153  149  152 1   
   154  149  158 1   
   155  150  151 2   
   156  150  163 1   
   157  152  153 1   
   158  152  159 1   
   159  152  160 1   
   160  153  154 1   
   161  153  161 1   
   162  153  162 1   
   163  154  155 1   
   164  154  156 1   
   165  163  164 1   
   166  163  168 1   
   167  164  165 1   
   168  164  166 1   
   169  164  167 1   
   170  170  171 1   
   171  170  172 1   
   172  173  174 1   
   173  173  175 1   
   174  176  177 1   
   175  176  178 1   
   176  179  180 1   
   177  179  181 1   
@<TRIPOS>SUBSTRUCTURE
     1 MOL         1 TEMP              0 ****  ****    0 ROOT
