@<TRIPOS>MOLECULE
MOL
  179   176     1     0     0
SMALL
resp


@<TRIPOS>ATOM
      1 C1          1.3290   -3.7610    5.8220 c3        1 MOL     -0.389908
      2 C2          1.4590   -3.6040    4.3160 c         1 MOL      0.732993
      3 O1          0.4530   -3.8230    3.6480 o         1 MOL     -0.596888
      4 H1          0.4070   -4.2940    6.0530 hc        1 MOL      0.111155
      5 H2          2.1800   -4.3270    6.2030 hc        1 MOL      0.111155
      6 H3          1.3080   -2.7760    6.2890 hc        1 MOL      0.111155
      7 N1          2.6450   -3.1620    3.8730 n         1 MOL     -0.552642
      8 C3          2.9070   -2.7120    2.4780 c3        1 MOL     -0.001968
      9 C4          3.5420   -3.8830    1.5820 c         1 MOL      0.429413
     10 O2          4.5470   -4.4830    2.0480 o         1 MOL     -0.528689
     11 C5          3.7660   -1.4440    2.5530 c3        1 MOL      0.085205
     12 C6          3.9980   -0.7260    1.2870 c         1 MOL      0.408948
     13 O3          4.1920    0.4800    1.4300 o         1 MOL     -0.597571
     14 O4          3.9190   -1.2470    0.1330 o         1 MOL     -0.597571
     15 H4          3.3640   -3.0200    4.5710 hn        1 MOL      0.325933
     16 H5          2.0250   -2.3350    1.9520 h1        1 MOL      0.035376
     17 H6          4.7180   -1.7350    2.9930 hc        1 MOL      0.021610
     18 H7          3.3700   -0.8170    3.3460 hc        1 MOL      0.021610
     19 N2          3.0320   -4.1670    0.4330 n         1 MOL     -0.173881
     20 C7          3.6230   -5.1350   -0.4910 c3        1 MOL     -0.067902
     21 C8          4.7500   -4.5520   -1.4050 c         1 MOL      0.399656
     22 O5          5.6200   -5.3360   -1.8010 o         1 MOL     -0.553347
     23 C9          2.5360   -5.6120   -1.3910 c3        1 MOL      0.035784
     24 C10         1.3660   -6.2190   -0.5700 c3        1 MOL     -0.048517
     25 C11         0.2700   -6.8470   -1.4170 c3        1 MOL     -0.018077
     26 C12         0.7810   -8.1280   -2.0660 c3        1 MOL      0.063319
     27 N3         -0.3490   -8.6430   -2.8560 n4        1 MOL     -0.316110
     28 H8          2.2250   -3.7120    0.0540 hn        1 MOL      0.173167
     29 H9          4.0820   -5.9900    0.0160 h1        1 MOL      0.130193
     30 H10         2.9210   -6.3070   -2.1320 hc        1 MOL      0.003380
     31 H11         2.0860   -4.7610   -1.9090 hc        1 MOL      0.003380
     32 H12         0.9280   -5.4920    0.1280 hc        1 MOL      0.026450
     33 H13         1.8650   -6.9760    0.0300 hc        1 MOL      0.026450
     34 H14         0.1180   -6.0370   -2.1210 hc        1 MOL      0.021869
     35 H15        -0.6210   -7.1050   -0.8450 hc        1 MOL      0.021869
     36 H16         1.0240   -8.8780   -1.3170 hx        1 MOL      0.086815
     37 H17         1.6430   -7.8930   -2.6900 hx        1 MOL      0.086815
     38 H18        -1.1490   -8.7410   -2.2470 hn        1 MOL      0.280890
     39 H19        -0.5730   -8.0090   -3.6060 hn        1 MOL      0.280890
     40 H20        -0.2040   -9.5820   -3.1920 hn        1 MOL      0.280890
     41 N4          4.8050   -3.2710   -1.5770 n         1 MOL     -0.080010
     42 C13         5.9910   -2.6850   -2.3220 c3        1 MOL      0.095470
     43 C14         7.0340   -2.0480   -1.4170 c         1 MOL      0.494847
     44 O6          8.1350   -1.9560   -1.8680 o         1 MOL     -0.526803
     45 C15         5.5450   -1.5920   -3.3770 c3        1 MOL     -0.356752
     46 C16         4.5010   -0.6530   -2.7690 c         1 MOL      0.887001
     47 O7          3.2640   -0.8340   -2.7360 o         1 MOL     -0.824958
     48 O8          4.9640    0.3080   -2.1780 o         1 MOL     -0.824958
     49 H21         4.0770   -2.6760   -1.1900 hn        1 MOL     -0.021177
     50 H22         6.5310   -3.4210   -2.9160 h1        1 MOL      0.087830
     51 H23         5.0210   -2.0760   -4.2070 hc        1 MOL      0.097180
     52 H24         6.4340   -0.9890   -3.5420 hc        1 MOL      0.097180
     53 N5          6.6720   -1.5540   -0.2060 n         1 MOL     -0.309826
     54 C17         7.5770   -0.7100    0.7340 c3        1 MOL     -0.363050
     55 C18         7.7180    0.7540    0.4570 c         1 MOL      0.551092
     56 O9          8.4750    1.3970    1.2420 o         1 MOL     -0.548730
     57 H25         5.6730   -1.5570   -0.0040 hn        1 MOL      0.225432
     58 H26         8.5200   -1.2530    0.6900 h1        1 MOL      0.185836
     59 H27         7.2040   -0.7290    1.7540 h1        1 MOL      0.185836
     60 N6          6.9950    1.3120   -0.5280 n         1 MOL     -0.170251
     61 C19         6.9480    2.7350   -0.7360 c3        1 MOL      0.006667
     62 C20         5.4930    3.3290   -0.5200 c         1 MOL      0.607059
     63 O10         4.5170    2.6470   -0.2490 o         1 MOL     -0.532569
     64 C21         7.4190    2.9490   -2.2210 c3        1 MOL     -0.303729
     65 C22         8.7030    2.4200   -2.5770 c         1 MOL      0.757750
     66 N7          8.7340    1.3850   -3.3850 n         1 MOL     -0.907671
     67 O11         9.7160    2.8660   -2.1290 o         1 MOL     -0.562929
     68 H28         6.3090    0.8070   -1.0680 hn        1 MOL      0.277929
     69 H29         7.6490    3.2620   -0.0780 h1        1 MOL      0.076976
     70 H30         7.5130    4.0160   -2.4020 hc        1 MOL      0.057191
     71 H31         6.6470    2.4120   -2.7820 hc        1 MOL      0.057191
     72 H32         7.8610    1.0120   -3.7260 hn        1 MOL      0.409933
     73 H33         9.6370    0.9860   -3.5570 hn        1 MOL      0.409933
     74 N8          5.2950    4.6640   -0.7450 n         1 MOL     -0.548786
     75 C23         3.9860    5.2570   -0.9360 c3        1 MOL      0.032476
     76 C24         2.9760    5.2710    0.2360 c         1 MOL      0.605175
     77 O12         3.3600    5.3630    1.4130 o         1 MOL     -0.509857
     78 H34         6.1040    5.2270   -0.9600 hn        1 MOL      0.353368
     79 H35         3.4630    4.7670   -1.7540 h1        1 MOL      0.040343
     80 H36         4.0040    6.3060   -1.2380 h1        1 MOL      0.040343
     81 N9          1.7610    5.0770   -0.0650 n         1 MOL     -0.549797
     82 C25         0.6920    4.6570    0.7740 c3        1 MOL      0.064009
     83 C26         0.8000    3.2090    1.2740 c         1 MOL      0.703443
     84 O13         1.7160    2.5100    0.8580 o         1 MOL     -0.610189
     85 C27        -0.6230    4.7330   -0.0270 c3        1 MOL     -0.201553
     86 C28        -1.0690    6.1060   -0.3230 ca        1 MOL      0.144880
     87 C29        -1.2220    7.0450    0.7480 ca        1 MOL     -0.172622
     88 C30        -1.4780    6.5740   -1.5880 ca        1 MOL     -0.172622
     89 C31        -1.6880    8.3600    0.5020 ca        1 MOL     -0.310995
     90 C32        -1.9670    7.9020   -1.8650 ca        1 MOL     -0.310995
     91 C33        -2.1210    8.7510   -0.8220 ca        1 MOL      0.401792
     92 O14        -2.6130    9.9650   -1.0260 oh        1 MOL     -0.456812
     93 H37         1.5600    5.1850   -1.0510 hn        1 MOL      0.287473
     94 H38         0.6390    5.2340    1.6900 h1        1 MOL      0.080288
     95 H39        -1.3970    4.1730    0.4970 hc        1 MOL      0.059948
     96 H40        -0.4450    4.1980   -0.9510 hc        1 MOL      0.059948
     97 H41        -0.9520    6.7840    1.7560 ha        1 MOL      0.136099
     98 H42        -1.4240    5.9310   -2.4440 ha        1 MOL      0.136099
     99 H43        -1.8220    9.0750    1.2970 ha        1 MOL      0.177507
    100 H44        -2.3660    8.0620   -2.8590 ha        1 MOL      0.177507
    101 H45        -2.6270   10.4140   -0.1850 ho        1 MOL      0.354056
    102 N10        -0.1170    2.8300    2.2590 n         1 MOL     -0.688440
    103 C34        -0.1430    1.4610    2.8600 c3        1 MOL      0.139470
    104 C35        -0.1770    0.2870    1.7650 c         1 MOL      0.111124
    105 O15         0.8530    0.0460    1.1550 o         1 MOL     -0.067885
    106 C36         1.0730    1.2450    3.8810 c3        1 MOL      0.293388
    107 C37         0.8510   -0.1060    4.6080 c3        1 MOL     -0.101827
    108 C38         1.3040    2.4870    4.7830 c3        1 MOL     -0.531573
    109 C39        -0.3960   -0.3840    5.3600 c3        1 MOL     -0.067767
    110 H46        -0.8730    3.4650    2.4500 hn        1 MOL      0.354977
    111 H47        -1.0230    1.3450    3.4950 h1        1 MOL      0.049237
    112 H48         1.9800    1.1820    3.2800 hc        1 MOL     -0.000532
    113 H49         1.6970   -0.2750    5.2700 hc        1 MOL      0.032347
    114 H50         0.9030   -0.9200    3.8840 hc        1 MOL      0.032347
    115 H51         0.3780    2.9680    5.1240 hc        1 MOL      0.140234
    116 H52         1.9710    2.1910    5.5780 hc        1 MOL      0.140234
    117 H53         1.8430    3.1700    4.1220 hc        1 MOL      0.140234
    118 H54        -0.4890    0.4480    6.0650 hc        1 MOL      0.013273
    119 H55        -1.2380   -0.3570    4.6740 hc        1 MOL      0.013273
    120 H56        -0.3240   -1.3150    5.9110 hc        1 MOL      0.013273
    121 N11        -1.3120   -0.3260    1.5470 n         1 MOL     -0.259365
    122 C40        -1.5480   -1.3290    0.4960 c3        1 MOL     -0.249993
    123 C41        -3.0100   -1.3490   -0.0910 c         1 MOL      0.732444
    124 O16        -3.3780   -2.0220   -1.0790 o         1 MOL     -0.584282
    125 C42        -1.2080   -2.6940    1.0130 c3        1 MOL      0.388289
    126 O17        -1.7360   -2.9660    2.3130 oh        1 MOL     -0.643846
    127 H57        -2.1280   -0.0780    2.0840 hn        1 MOL      0.297910
    128 H58        -0.8620   -1.2160   -0.3420 h1        1 MOL      0.018838
    129 H59        -0.1220   -2.7340    1.0830 h1        1 MOL     -0.006050
    130 H60        -1.5790   -3.5200    0.4030 h1        1 MOL     -0.006050
    131 H61        -1.0430   -3.2720    2.8970 ho        1 MOL      0.389096
    132 N12        -3.9490   -0.6150    0.5480 n         1 MOL     -0.639947
    133 C43        -5.3670   -0.5440    0.1080 c3        1 MOL      0.431751
    134 C44        -5.6760    0.0260   -1.2520 c         1 MOL      0.555059
    135 O18        -4.9120    0.8410   -1.7290 o         1 MOL     -0.584918
    136 C45        -6.1540    0.1420    1.2420 c3        1 MOL     -0.578937
    137 H62        -3.7030    0.0440    1.2740 hn        1 MOL      0.278338
    138 H63        -5.6460   -1.5920    0.0590 h1        1 MOL      0.040526
    139 H64        -7.2030   -0.0810    1.0930 hc        1 MOL      0.163096
    140 H65        -6.0560   -0.4350    2.1620 hc        1 MOL      0.163096
    141 H66        -6.1450    1.2390    1.1790 hc        1 MOL      0.163096
    142 N13        -6.7580   -0.3420   -2.0260 n         1 MOL     -0.521325
    143 C46        -7.9000   -1.1160   -1.5290 c3        1 MOL      0.249087
    144 C47        -9.2380   -0.7090   -2.2720 c         1 MOL      0.277154
    145 O19        -9.3820   -0.2700   -3.3980 o         1 MOL     -0.479092
    146 C48        -7.4770   -2.5690   -1.8150 c3        1 MOL     -0.090796
    147 H67        -6.7810    0.0030   -2.9760 hn        1 MOL      0.314176
    148 H68        -7.9750   -0.9320   -0.4600 h1        1 MOL     -0.106863
    149 H69        -7.4220   -2.7510   -2.8810 hc        1 MOL      0.027655
    150 H70        -6.4200   -2.7000   -1.5590 hc        1 MOL      0.027655
    151 H71        -8.1220   -3.3450   -1.3960 hc        1 MOL      0.027655
    152 N14       -10.4020   -0.8870   -1.5900 n         1 MOL     -0.124607
    153 C49       -10.6900   -1.5610   -0.3280 c3        1 MOL     -0.187455
    154 C50       -10.2370   -0.7050    0.8070 c         1 MOL      0.618111
    155 O20        -9.7660   -1.1940    1.8290 o         1 MOL     -0.610391
    156 C51       -12.1300   -2.0780   -0.2790 c3        1 MOL     -0.035241
    157 C52       -13.0940   -0.9370   -0.0410 c3        1 MOL     -0.114297
    158 C53       -13.1430    0.0680   -1.1690 c         1 MOL      0.639318
    159 O21       -13.1740   -0.3320   -2.3630 o         1 MOL     -0.647917
    160 O22       -12.8680    1.2740   -0.9330 o         1 MOL     -0.647917
    161 H72       -11.2500   -0.7770   -2.1310 hn        1 MOL      0.234905
    162 H73        -9.9760   -2.3890   -0.3660 h1        1 MOL      0.069977
    163 H74       -12.2710   -2.8440    0.4750 hc        1 MOL      0.042199
    164 H75       -12.3020   -2.5040   -1.2680 hc        1 MOL      0.042199
    165 H76       -12.9860   -0.3510    0.8710 hc        1 MOL      0.018661
    166 H77       -14.1010   -1.3510   -0.0070 hc        1 MOL      0.018661
    167 N15       -10.2480    0.6240    0.6410 n         1 MOL     -0.249051
    168 C54        -9.7690    1.7040    1.5430 c3        1 MOL     -0.120969
    169 H78        -8.9050    2.1950    1.0940 h1        1 MOL      0.069371
    170 H79       -10.5650    2.4340    1.6920 h1        1 MOL      0.069371
    171 H80        -9.4840    1.2750    2.5040 h1        1 MOL      0.069371
    172 H81       -10.6970    0.9940   -0.1730 hn        1 MOL      0.227446
    173 Ca1         2.6690    0.8160   -0.8120 Ca        1 MOL      1.732553
    174 O23         0.2340    0.9330   -1.9830 oh        1 MOL     -0.944003
    175 H82        -0.6550    1.2250   -1.7830 ho        1 MOL      0.461529
    176 H83         0.1560    0.4350   -2.7970 ho        1 MOL      0.461529
    177 O24         1.5450   -2.1670   -1.2260 oh        1 MOL     -0.944003
    178 H84         2.0430   -1.8140   -1.9580 ho        1 MOL      0.461529
    179 H85         0.8700   -2.7170   -1.6300 ho        1 MOL      0.461529
@<TRIPOS>BOND
     1    1    2 1   
     2    1    4 1   
     3    1    5 1   
     4    1    6 1   
     5    2    3 2   
     6    2    7 1   
     7    7    8 1   
     8    7   15 1   
     9    8    9 1   
    10    8   11 1   
    11    8   16 1   
    12    9   10 2   
    13    9   19 1   
    14   11   12 1   
    15   11   17 1   
    16   11   18 1   
    17   12   13 1   
    18   12   14 1   
    19   19   20 1   
    20   19   28 1   
    21   20   21 1   
    22   20   23 1   
    23   20   29 1   
    24   21   22 2   
    25   21   41 1   
    26   23   24 1   
    27   23   30 1   
    28   23   31 1   
    29   24   25 1   
    30   24   32 1   
    31   24   33 1   
    32   25   26 1   
    33   25   34 1   
    34   25   35 1   
    35   26   27 1   
    36   26   36 1   
    37   26   37 1   
    38   27   38 1   
    39   27   39 1   
    40   27   40 1   
    41   41   42 1   
    42   41   49 1   
    43   42   43 1   
    44   42   45 1   
    45   42   50 1   
    46   43   44 2   
    47   43   53 1   
    48   45   46 1   
    49   45   51 1   
    50   45   52 1   
    51   46   47 1   
    52   46   48 1   
    53   53   54 1   
    54   53   57 1   
    55   54   55 1   
    56   54   58 1   
    57   54   59 1   
    58   55   56 2   
    59   55   60 1   
    60   60   61 1   
    61   60   68 1   
    62   61   62 1   
    63   61   64 1   
    64   61   69 1   
    65   62   63 2   
    66   62   74 1   
    67   64   65 1   
    68   64   70 1   
    69   64   71 1   
    70   65   66 1   
    71   65   67 2   
    72   66   72 1   
    73   66   73 1   
    74   74   75 1   
    75   74   78 1   
    76   75   76 1   
    77   75   79 1   
    78   75   80 1   
    79   76   77 2   
    80   76   81 1   
    81   81   82 1   
    82   81   93 1   
    83   82   83 1   
    84   82   85 1   
    85   82   94 1   
    86   83   84 2   
    87   83  102 1   
    88   85   86 1   
    89   85   95 1   
    90   85   96 1   
    91   86   87 ar  
    92   86   88 ar  
    93   87   89 ar  
    94   87   97 1   
    95   88   90 ar  
    96   88   98 1   
    97   89   91 ar  
    98   89   99 1   
    99   90   91 ar  
   100   90  100 1   
   101   91   92 1   
   102   92  101 1   
   103  102  103 1   
   104  102  110 1   
   105  103  104 1   
   106  103  106 1   
   107  103  111 1   
   108  104  105 2   
   109  104  121 1   
   110  106  107 1   
   111  106  108 1   
   112  106  112 1   
   113  107  109 1   
   114  107  113 1   
   115  107  114 1   
   116  108  115 1   
   117  108  116 1   
   118  108  117 1   
   119  109  118 1   
   120  109  119 1   
   121  109  120 1   
   122  121  122 1   
   123  121  127 1   
   124  122  123 1   
   125  122  125 1   
   126  122  128 1   
   127  123  124 2   
   128  123  132 1   
   129  125  126 1   
   130  125  129 1   
   131  125  130 1   
   132  126  131 1   
   133  132  133 1   
   134  132  137 1   
   135  133  134 1   
   136  133  136 1   
   137  133  138 1   
   138  134  135 2   
   139  134  142 1   
   140  136  139 1   
   141  136  140 1   
   142  136  141 1   
   143  142  143 1   
   144  142  147 1   
   145  143  144 1   
   146  143  146 1   
   147  143  148 1   
   148  144  145 2   
   149  144  152 1   
   150  146  149 1   
   151  146  150 1   
   152  146  151 1   
   153  152  153 1   
   154  152  161 1   
   155  153  154 1   
   156  153  156 1   
   157  153  162 1   
   158  154  155 2   
   159  154  167 1   
   160  156  157 1   
   161  156  163 1   
   162  156  164 1   
   163  157  158 1   
   164  157  165 1   
   165  157  166 1   
   166  158  159 1   
   167  158  160 1   
   168  167  168 1   
   169  167  172 1   
   170  168  169 1   
   171  168  170 1   
   172  168  171 1   
   173  174  175 1   
   174  174  176 1   
   175  177  178 1   
   176  177  179 1   
@<TRIPOS>SUBSTRUCTURE
     1 MOL         1 TEMP              0 ****  ****    0 ROOT
