@<TRIPOS>MOLECULE
MOL
  183   181     1     0     0
SMALL
resp


@<TRIPOS>ATOM
      1 C1        -12.1640    5.3980    3.4950 c3        1 MOL     -0.319396
      2 C2        -12.2940    4.4570    2.2860 c         1 MOL      0.511192
      3 O1        -13.3620    3.9460    1.9780 o         1 MOL     -0.558933
      4 H1        -13.0970    5.3970    4.0590 hc        1 MOL      0.087072
      5 H2        -11.3520    5.0560    4.1360 hc        1 MOL      0.087072
      6 H3        -11.9520    6.4100    3.1480 hc        1 MOL      0.087072
      7 N1        -11.2090    4.3410    1.5270 n         1 MOL      0.261097
      8 C3        -11.0110    3.5390    0.3750 c3        1 MOL     -1.002813
      9 C4         -9.8490    2.5140    0.4770 c         1 MOL      0.627482
     10 O2         -8.7780    2.7970    1.0380 o         1 MOL     -0.623658
     11 C5        -10.8550    4.4600   -0.8430 c3        1 MOL      0.270940
     12 C6         -9.8740    5.5660   -0.6270 c         1 MOL      0.647545
     13 O3         -9.0040    5.4850    0.2700 o         1 MOL     -0.681163
     14 O4         -9.8830    6.5270   -1.4140 o         1 MOL     -0.681163
     15 H4        -10.4510    4.9760    1.6860 hn        1 MOL     -0.027485
     16 H5        -11.9680    3.0500    0.2100 h1        1 MOL      0.245441
     17 H6        -11.8090    4.9510   -1.0580 hc        1 MOL      0.017145
     18 H7        -10.5380    3.8930   -1.7240 hc        1 MOL      0.017145
     19 N2        -10.0370    1.3740   -0.1690 n         1 MOL     -0.073142
     20 C7         -9.2160    0.1780    0.0580 c3        1 MOL     -0.508879
     21 C8         -7.7440    0.3350   -0.2780 c         1 MOL      0.615802
     22 O5         -6.9350   -0.4740    0.2760 o         1 MOL     -0.460926
     23 C9         -9.9030   -0.8990   -0.8910 c3        1 MOL     -0.028738
     24 C10       -11.0090   -1.6850   -0.0690 c3        1 MOL      0.059752
     25 C11       -11.5300   -2.8790   -0.8320 c3        1 MOL     -0.047339
     26 C12       -12.5500   -3.7370   -0.0670 c3        1 MOL     -0.004061
     27 N3        -11.9010   -4.2090    1.1420 n4        1 MOL     -0.409655
     28 H8        -10.8790    1.2930   -0.7170 hn        1 MOL      0.238457
     29 H9         -9.3680   -0.1510    1.0820 h1        1 MOL      0.207096
     30 H10        -9.2380   -1.6350   -1.3310 hc        1 MOL      0.061561
     31 H11       -10.3450   -0.4070   -1.7570 hc        1 MOL      0.061561
     32 H12       -11.8240   -0.9830    0.0850 hc        1 MOL     -0.006785
     33 H13       -10.5740   -2.0340    0.8650 hc        1 MOL     -0.006785
     34 H14       -10.7240   -3.5850   -1.0430 hc        1 MOL      0.069162
     35 H15       -11.8400   -2.5460   -1.8140 hc        1 MOL      0.069162
     36 H16       -12.8110   -4.5990   -0.6790 hx        1 MOL      0.089074
     37 H17       -13.4320   -3.1280    0.1100 hx        1 MOL      0.089074
     38 H18       -12.5160   -4.8440    1.6190 hn        1 MOL      0.353806
     39 H19       -11.1130   -4.7660    0.8450 hn        1 MOL      0.353806
     40 H20       -11.5800   -3.4130    1.6760 hn        1 MOL      0.353806
     41 N4         -7.3670    1.2780   -1.1510 n         1 MOL     -0.111206
     42 C13        -6.0950    1.3680   -1.8160 c3        1 MOL     -0.528297
     43 C14        -4.9990    1.7500   -0.8040 c         1 MOL      0.404975
     44 O6         -5.2670    2.4380    0.2080 o         1 MOL     -0.648433
     45 C15        -6.0150    2.3000   -3.0030 c3        1 MOL     -0.014285
     46 C16        -6.3270    3.8130   -2.6990 c         1 MOL      0.690671
     47 O7         -6.4820    4.2990   -1.5500 o         1 MOL     -0.686030
     48 O8         -6.4960    4.5440   -3.7150 o         1 MOL     -0.686030
     49 H21        -8.1430    1.7890   -1.5480 hn        1 MOL      0.207578
     50 H22        -5.8780    0.3660   -2.1930 h1        1 MOL      0.205216
     51 H23        -6.7520    1.9260   -3.7140 hc        1 MOL      0.076122
     52 H24        -5.0780    2.3230   -3.5610 hc        1 MOL      0.076122
     53 N5         -3.7690    1.2950   -0.9900 n         1 MOL     -0.305135
     54 C17        -3.3770    0.1510   -1.8430 c3        1 MOL     -0.079720
     55 C18        -3.6680   -1.2080   -1.1340 c         1 MOL      0.730127
     56 O9         -3.6420   -1.2430    0.0830 o         1 MOL     -0.526404
     57 H25        -3.1000    1.3790   -0.2390 hn        1 MOL      0.306871
     58 H26        -2.3060    0.1210   -2.0050 h1        1 MOL      0.075808
     59 H27        -3.8060    0.2210   -2.8430 h1        1 MOL      0.075808
     60 N6         -3.9150   -2.2220   -1.9260 n         1 MOL     -0.716556
     61 C19        -4.4590   -3.5110   -1.4340 c3        1 MOL      0.374251
     62 C20        -3.5020   -4.6290   -1.6440 c         1 MOL      0.518858
     63 O10        -2.8400   -4.6890   -2.7070 o         1 MOL     -0.553438
     64 C21        -5.8230   -3.7300   -1.9700 c3        1 MOL     -0.342692
     65 C22        -6.5170   -4.9420   -1.3410 c         1 MOL      0.742543
     66 O11        -6.6810   -5.9440   -2.0270 o         1 MOL     -0.732397
     67 O12        -6.9520   -4.8830   -0.2020 o         1 MOL     -0.732397
     68 H28        -4.0290   -2.0130   -2.9090 hn        1 MOL      0.316157
     69 H29        -4.5540   -3.3810   -0.3590 h1        1 MOL     -0.050588
     70 H30        -5.7730   -4.0380   -3.0130 hc        1 MOL      0.065995
     71 H31        -6.3920   -2.8320   -1.7400 hc        1 MOL      0.065995
     72 N7         -3.5480   -5.5790   -0.7200 n         1 MOL     -0.250993
     73 C23        -2.6450   -6.7170   -0.6750 c3        1 MOL     -0.183494
     74 C24        -1.2760   -6.4600   -0.0670 c         1 MOL      0.530339
     75 O13        -0.4860   -7.3830    0.1530 o         1 MOL     -0.576540
     76 H32        -4.0480   -5.2920    0.1110 hn        1 MOL      0.238457
     77 H33        -2.4640   -7.1660   -1.6470 h1        1 MOL      0.127749
     78 H34        -3.0460   -7.4980   -0.0340 h1        1 MOL      0.127749
     79 N8         -0.9400   -5.2280    0.2720 n         1 MOL     -0.231180
     80 C25         0.1910   -4.8400    1.0950 c3        1 MOL     -0.063601
     81 C26         0.4940   -3.3420    0.8850 c         1 MOL      0.463071
     82 O14        -0.2430   -2.5970    0.1750 o         1 MOL     -0.498874
     83 C27        -0.1030   -4.9130    2.5770 c3        1 MOL      0.329378
     84 C28        -1.3500   -4.1310    3.0900 c3        1 MOL     -0.265259
     85 O15        -0.4470   -6.1830    2.8870 oh        1 MOL     -0.584023
     86 H35        -1.5020   -4.4410   -0.0110 hn        1 MOL      0.145335
     87 H36         1.1060   -5.4020    0.9590 h1        1 MOL      0.069078
     88 H37         0.7600   -4.6410    3.1820 h1        1 MOL     -0.026268
     89 H38         0.2840   -6.7340    2.5790 ho        1 MOL      0.380540
     90 H39        -2.1940   -4.5320    2.5470 hc        1 MOL      0.083214
     91 H40        -1.5690   -4.2750    4.1490 hc        1 MOL      0.083214
     92 H41        -1.3400   -3.0540    2.9260 hc        1 MOL      0.083214
     93 N9          1.6740   -2.9090    1.2240 n         1 MOL     -0.332726
     94 C29         2.1920   -1.5520    1.2070 c3        1 MOL     -0.158032
     95 C30         3.5460   -1.3680    0.4550 c         1 MOL      0.714609
     96 O16         3.7470   -0.2870   -0.1930 o         1 MOL     -0.552919
     97 C31         2.2440   -0.9590    2.6150 c3        1 MOL      0.204548
     98 C32         1.0670   -1.3430    3.4840 c3        1 MOL      0.017732
     99 C33         2.2850    0.5650    2.3990 c3        1 MOL     -0.266164
    100 C34         1.1090   -0.8440    4.9560 c3        1 MOL     -0.282200
    101 H42         2.3120   -3.6120    1.5560 hn        1 MOL      0.213020
    102 H43         1.4650   -0.9060    0.7030 h1        1 MOL      0.123411
    103 H44         3.1200   -1.2970    3.1640 hc        1 MOL     -0.016236
    104 H45         1.1520   -2.4110    3.6480 hc        1 MOL      0.024082
    105 H46         0.1570   -1.1530    2.9250 hc        1 MOL      0.024082
    106 H47         1.3230    0.8030    1.9310 hc        1 MOL      0.065631
    107 H48         2.4020    1.1360    3.3200 hc        1 MOL      0.065631
    108 H49         3.1570    0.8310    1.8070 hc        1 MOL      0.065631
    109 H50         0.2770   -1.0930    5.6170 hc        1 MOL      0.069757
    110 H51         2.1370   -0.9710    5.2990 hc        1 MOL      0.069757
    111 H52         1.0150    0.2360    4.8550 hc        1 MOL      0.069757
    112 N10         4.3940   -2.3780    0.4350 n         1 MOL     -0.670865
    113 C35         5.7170   -2.3650   -0.3210 c3        1 MOL      0.051904
    114 C36         6.9640   -2.7020    0.5780 c         1 MOL      0.636301
    115 O17         6.8740   -3.5610    1.4850 o         1 MOL     -0.536625
    116 C37         5.6900   -3.2370   -1.6230 c3        1 MOL      0.415331
    117 C38         4.8170   -2.5390   -2.6660 c3        1 MOL     -0.464615
    118 O18         6.9970   -3.4940   -2.0950 oh        1 MOL     -0.679706
    119 H53         4.1480   -3.2810    0.7980 hn        1 MOL      0.339106
    120 H54         5.9500   -1.3650   -0.6810 h1        1 MOL      0.083678
    121 H55         5.1940   -4.1750   -1.3940 h1        1 MOL     -0.017855
    122 H56         6.9190   -4.1270   -2.8040 ho        1 MOL      0.422751
    123 H57         5.1460   -1.5150   -2.8570 hc        1 MOL      0.134321
    124 H58         4.8470   -3.2050   -3.5290 hc        1 MOL      0.134321
    125 H59         3.8340   -2.4360   -2.2140 hc        1 MOL      0.134321
    126 N11         8.1370   -2.2010    0.1100 n         1 MOL     -0.662389
    127 C39         9.4180   -2.3430    0.8470 c3        1 MOL      0.021898
    128 C40        10.1370   -1.0890    1.1080 c         1 MOL      0.728611
    129 O19        10.6820   -0.9550    2.1950 o         1 MOL     -0.591802
    130 C41        10.3060   -3.3670    0.1090 c3        1 MOL      0.310842
    131 C42        11.7930   -3.3990    0.6240 c3        1 MOL     -0.431821
    132 O20        10.4490   -3.0470   -1.2240 oh        1 MOL     -0.618880
    133 H60         8.1920   -1.7060   -0.7660 hn        1 MOL      0.365980
    134 H61         9.1500   -2.7640    1.8130 h1        1 MOL      0.091815
    135 H62         9.8470   -4.3560    0.1260 h1        1 MOL      0.046191
    136 H63        10.4030   -3.8690   -1.7120 ho        1 MOL      0.409781
    137 H64        12.1920   -2.3890    0.5290 hc        1 MOL      0.100697
    138 H65        11.7460   -3.5780    1.7020 hc        1 MOL      0.100697
    139 H66        12.4020   -4.1240    0.0970 hc        1 MOL      0.100697
    140 N12        10.0680   -0.1050    0.2060 n         1 MOL     -0.476115
    141 C43        10.5800    1.2550    0.5320 c3        1 MOL      0.024022
    142 C44         9.7890    2.3360   -0.2750 c         1 MOL      0.451733
    143 O21         9.1080    1.9460   -1.2190 o         1 MOL     -0.514154
    144 C45        12.1060    1.3090    0.2170 c3        1 MOL     -0.242831
    145 C46        12.5340    1.0140   -1.2670 c3        1 MOL      0.086030
    146 C47        14.0740    0.9000   -1.2650 c3        1 MOL     -0.157398
    147 C48        14.6210   -0.3890   -0.6600 c3        1 MOL      0.061291
    148 N13        14.8650   -1.3960   -1.6680 n4        1 MOL     -0.257506
    149 H67         9.6230   -0.2210   -0.6900 hn        1 MOL      0.266174
    150 H68        10.4590    1.5590    1.5690 h1        1 MOL      0.094604
    151 H69        12.5930    0.6910    0.9670 hc        1 MOL      0.095341
    152 H70        12.4220    2.3390    0.3710 hc        1 MOL      0.095341
    153 H71        12.1740    1.7910   -1.9400 hc        1 MOL      0.033338
    154 H72        12.0860    0.0700   -1.5660 hc        1 MOL      0.033338
    155 H73        14.3230    1.7270   -0.6050 hc        1 MOL      0.065969
    156 H74        14.4310    1.0250   -2.2930 hc        1 MOL      0.065969
    157 H75        13.9330   -0.7660    0.0980 hx        1 MOL      0.064503
    158 H76        15.6020   -0.2310   -0.2090 hx        1 MOL      0.064503
    159 H77        14.1170   -1.4250   -2.3500 hn        1 MOL      0.248195
    160 H78        15.7660   -1.2350   -2.0970 hn        1 MOL      0.248195
    161 H79        14.9460   -2.2330   -1.1130 hn        1 MOL      0.248195
    162 N14         9.8040    3.5650    0.0170 n         1 MOL     -0.295108
    163 C49         9.0810    4.6600   -0.5520 c3        1 MOL      0.128381
    164 C50         7.5520    4.4310   -0.5160 c         1 MOL      0.266067
    165 O22         6.9360    4.5190   -1.5900 o         1 MOL     -0.505075
    166 C51         9.6050    5.9200    0.2010 c3        1 MOL      0.164294
    167 C52         9.1920    7.1470   -0.5800 c3        1 MOL     -0.318798
    168 C53         9.9950    8.3640   -0.0700 c         1 MOL      0.734909
    169 O23        11.1780    8.4430   -0.4620 o         1 MOL     -0.658909
    170 O24         9.5400    9.1920    0.6960 o         1 MOL     -0.658909
    171 H80        10.4400    3.8080    0.7690 hn        1 MOL      0.183888
    172 H81         9.3800    4.7910   -1.5910 h1        1 MOL      0.080146
    173 H82        10.6900    5.8290    0.1320 hc        1 MOL     -0.024993
    174 H83         9.3110    5.8960    1.2520 hc        1 MOL     -0.024993
    175 H84         8.1350    7.3050   -0.3340 hc        1 MOL      0.067558
    176 H85         9.4160    6.9250   -1.6200 hc        1 MOL      0.067558
    177 N15         6.8740    4.1900    0.5930 n         1 MOL     -0.171791
    178 C54         7.1840    4.2640    2.0220 c3        1 MOL     -0.158438
    179 H86         6.2750    4.5000    2.5780 h1        1 MOL      0.081327
    180 H87         7.5770    3.3040    2.3590 h1        1 MOL      0.081327
    181 H88         7.9270    5.0420    2.1940 h1        1 MOL      0.081327
    182 H89         5.9080    4.0430    0.3230 hn        1 MOL      0.249366
    183 Ca1        -6.7790    4.4960    0.9990 Ca        1 MOL      1.717075
@<TRIPOS>BOND
     1    1    2 1   
     2    1    4 1   
     3    1    5 1   
     4    1    6 1   
     5    2    3 2   
     6    2    7 1   
     7    7    8 1   
     8    7   15 1   
     9    8    9 1   
    10    8   11 1   
    11    8   16 1   
    12    9   10 2   
    13    9   19 1   
    14   11   12 1   
    15   11   17 1   
    16   11   18 1   
    17   12   13 1   
    18   12   14 1   
    19   19   20 1   
    20   19   28 1   
    21   20   21 1   
    22   20   23 1   
    23   20   29 1   
    24   21   22 2   
    25   21   41 1   
    26   23   24 1   
    27   23   30 1   
    28   23   31 1   
    29   24   25 1   
    30   24   32 1   
    31   24   33 1   
    32   25   26 1   
    33   25   34 1   
    34   25   35 1   
    35   26   27 1   
    36   26   36 1   
    37   26   37 1   
    38   27   38 1   
    39   27   39 1   
    40   27   40 1   
    41   41   42 1   
    42   41   49 1   
    43   42   43 1   
    44   42   45 1   
    45   42   50 1   
    46   43   44 2   
    47   43   53 1   
    48   45   46 1   
    49   45   51 1   
    50   45   52 1   
    51   46   47 1   
    52   46   48 1   
    53   53   54 1   
    54   53   57 1   
    55   54   55 1   
    56   54   58 1   
    57   54   59 1   
    58   55   56 2   
    59   55   60 1   
    60   60   61 1   
    61   60   68 1   
    62   61   62 1   
    63   61   64 1   
    64   61   69 1   
    65   62   63 2   
    66   62   72 1   
    67   64   65 1   
    68   64   70 1   
    69   64   71 1   
    70   65   66 1   
    71   65   67 1   
    72   72   73 1   
    73   72   76 1   
    74   73   74 1   
    75   73   77 1   
    76   73   78 1   
    77   74   75 2   
    78   74   79 1   
    79   79   80 1   
    80   79   86 1   
    81   80   81 1   
    82   80   83 1   
    83   80   87 1   
    84   81   82 2   
    85   81   93 1   
    86   83   84 1   
    87   83   85 1   
    88   83   88 1   
    89   84   90 1   
    90   84   91 1   
    91   84   92 1   
    92   85   89 1   
    93   93   94 1   
    94   93  101 1   
    95   94   95 1   
    96   94   97 1   
    97   94  102 1   
    98   95   96 2   
    99   95  112 1   
   100   97   98 1   
   101   97   99 1   
   102   97  103 1   
   103   98  100 1   
   104   98  104 1   
   105   98  105 1   
   106   99  106 1   
   107   99  107 1   
   108   99  108 1   
   109  100  109 1   
   110  100  110 1   
   111  100  111 1   
   112  112  113 1   
   113  112  119 1   
   114  113  114 1   
   115  113  116 1   
   116  113  120 1   
   117  114  115 2   
   118  114  126 1   
   119  116  117 1   
   120  116  118 1   
   121  116  121 1   
   122  117  123 1   
   123  117  124 1   
   124  117  125 1   
   125  118  122 1   
   126  126  127 1   
   127  126  133 1   
   128  127  128 1   
   129  127  130 1   
   130  127  134 1   
   131  128  129 2   
   132  128  140 1   
   133  130  131 1   
   134  130  132 1   
   135  130  135 1   
   136  131  137 1   
   137  131  138 1   
   138  131  139 1   
   139  132  136 1   
   140  140  141 1   
   141  140  149 1   
   142  141  142 1   
   143  141  144 1   
   144  141  150 1   
   145  142  143 2   
   146  142  162 1   
   147  144  145 1   
   148  144  151 1   
   149  144  152 1   
   150  145  146 1   
   151  145  153 1   
   152  145  154 1   
   153  146  147 1   
   154  146  155 1   
   155  146  156 1   
   156  147  148 1   
   157  147  157 1   
   158  147  158 1   
   159  148  159 1   
   160  148  160 1   
   161  148  161 1   
   162  162  163 1   
   163  162  171 1   
   164  163  164 1   
   165  163  166 1   
   166  163  172 1   
   167  164  165 2   
   168  164  177 1   
   169  166  167 1   
   170  166  173 1   
   171  166  174 1   
   172  167  168 1   
   173  167  175 1   
   174  167  176 1   
   175  168  169 1   
   176  168  170 1   
   177  177  178 1   
   178  177  182 1   
   179  178  179 1   
   180  178  180 1   
   181  178  181 1   
@<TRIPOS>SUBSTRUCTURE
     1 MOL         1 TEMP              0 ****  ****    0 ROOT
