@<TRIPOS>MOLECULE
MOL
  182   178     1     0     0
SMALL
resp


@<TRIPOS>ATOM
      1 C1          1.0580   -3.8860    6.9160 c3        1 MOL     -0.409944
      2 C2          0.8950   -3.5410    5.4160 c         1 MOL      0.781244
      3 O1         -0.2230   -3.5120    4.9170 o         1 MOL     -0.584642
      4 H1          0.4260   -4.7390    7.1630 hc        1 MOL      0.108416
      5 H2          2.0990   -4.1350    7.1220 hc        1 MOL      0.108416
      6 H3          0.7630   -3.0290    7.5210 hc        1 MOL      0.108416
      7 N1          1.9900   -3.3500    4.6470 n         1 MOL     -0.590883
      8 C3          2.0310   -3.1220    3.1670 c3        1 MOL      0.038285
      9 C4          1.8210   -4.4030    2.3330 c         1 MOL      0.583242
     10 O2          2.2080   -5.4820    2.7520 o         1 MOL     -0.537601
     11 C5          3.3710   -2.4030    2.8320 c3        1 MOL     -0.061973
     12 C6          3.3460   -1.6880    1.4960 c         1 MOL      0.298476
     13 O3          4.0680   -0.6820    1.2680 o         1 MOL     -0.534584
     14 O4          2.5600   -2.0300    0.6020 o         1 MOL     -0.534584
     15 H4          2.9140   -3.2820    5.0650 hn        1 MOL      0.298309
     16 H5          1.1960   -2.4790    2.8890 h1        1 MOL     -0.020318
     17 H6          4.2040   -3.1040    2.8950 hc        1 MOL      0.055583
     18 H7          3.4810   -1.5610    3.5160 hc        1 MOL      0.055583
     19 N2          1.1090   -4.3160    1.1960 n         1 MOL     -0.151581
     20 C7          0.9450   -5.2610    0.0550 c3        1 MOL     -0.356687
     21 C8          2.2240   -5.5090   -0.8500 c         1 MOL      0.670065
     22 O5          2.5230   -6.6480   -1.2590 o         1 MOL     -0.565246
     23 C9         -0.3090   -4.7710   -0.7050 c3        1 MOL      0.149742
     24 C10        -0.6470   -5.6370   -1.9460 c3        1 MOL     -0.074516
     25 C11        -1.8270   -5.0130   -2.7400 c3        1 MOL      0.053710
     26 C12        -2.0690   -5.8490   -4.0040 c3        1 MOL      0.207065
     27 N3         -3.1300   -5.1420   -4.7900 n4        1 MOL     -0.330554
     28 H8          0.6830   -3.4070    1.0580 hn        1 MOL      0.006661
     29 H9          0.6130   -6.1830    0.5110 h1        1 MOL      0.158352
     30 H10        -0.2310   -3.7130   -0.9760 hc        1 MOL      0.031233
     31 H11        -1.1530   -4.7940   -0.0110 hc        1 MOL      0.031233
     32 H12        -0.9150   -6.6530   -1.6330 hc        1 MOL      0.028567
     33 H13         0.1940   -5.7010   -2.6380 hc        1 MOL      0.028567
     34 H14        -1.4160   -4.0350   -2.9690 hc        1 MOL     -0.048672
     35 H15        -2.7580   -4.9670   -2.1650 hc        1 MOL     -0.048672
     36 H16        -2.4000   -6.8710   -3.8210 hx        1 MOL      0.035244
     37 H17        -1.2250   -5.9290   -4.6810 hx        1 MOL      0.035244
     38 H18        -3.4680   -5.7620   -5.5060 hn        1 MOL      0.251325
     39 H19        -3.9020   -4.9670   -4.1670 hn        1 MOL      0.251325
     40 H20        -2.7680   -4.2890   -5.2090 hn        1 MOL      0.251325
     41 N4          2.9620   -4.4230   -1.0980 n         1 MOL     -0.434985
     42 C13         4.2910   -4.4930   -1.7630 c3        1 MOL      0.194833
     43 C14         5.5040   -4.3730   -0.7660 c         1 MOL      0.400780
     44 O6          6.3710   -5.2370   -0.7090 o         1 MOL     -0.528297
     45 C15         4.3920   -3.4140   -2.8960 c3        1 MOL     -0.447293
     46 C16         3.7970   -2.1620   -2.3850 c         1 MOL      0.821880
     47 O7          2.6110   -1.8180   -2.6570 o         1 MOL     -0.765154
     48 O8          4.5170   -1.3580   -1.7600 o         1 MOL     -0.765154
     49 H21         2.7670   -3.6080   -0.5320 hn        1 MOL      0.238785
     50 H22         4.3160   -5.4460   -2.2950 h1        1 MOL      0.062856
     51 H23         3.8120   -3.7390   -3.7580 hc        1 MOL      0.136543
     52 H24         5.4490   -3.2710   -3.1400 hc        1 MOL      0.136543
     53 N5          5.4430   -3.3300    0.0620 n         1 MOL      0.058247
     54 C17         6.4740   -2.9450    0.9790 c3        1 MOL     -0.202943
     55 C18         7.0590   -1.5640    0.7530 c         1 MOL      0.569876
     56 O9          7.8310   -1.1180    1.6270 o         1 MOL     -0.559369
     57 H25         4.7180   -2.6420   -0.0910 hn        1 MOL     -0.072061
     58 H26         7.3420   -3.5990    0.9090 h1        1 MOL      0.115288
     59 H27         6.0450   -2.9290    1.9840 h1        1 MOL      0.115288
     60 N6          6.8310   -0.8290   -0.3550 n         1 MOL     -0.303564
     61 C19         7.3870    0.4640   -0.6890 c3        1 MOL     -0.026604
     62 C20         6.3130    1.6250   -0.7420 c         1 MOL      0.730344
     63 O10         5.1110    1.3250   -0.7150 o         1 MOL     -0.584556
     64 C21         8.1870    0.2810   -1.9790 c3        1 MOL     -0.192168
     65 C22         7.4910    0.3560   -3.3370 c         1 MOL      0.477752
     66 N7          6.3480   -0.1830   -3.5220 n         1 MOL     -0.514606
     67 O11         8.1140    0.8830   -4.2740 o         1 MOL     -0.552148
     68 H28         6.0860   -1.0330   -1.0080 hn        1 MOL      0.194089
     69 H29         8.0960    0.7470    0.0860 h1        1 MOL      0.075973
     70 H30         8.7090   -0.6710   -1.8180 hc        1 MOL      0.096346
     71 H31         9.0470    0.9300   -2.1590 hc        1 MOL      0.096346
     72 H32         5.8260   -0.7460   -2.8690 hn        1 MOL      0.266816
     73 H33         5.8820    0.0350   -4.3920 hn        1 MOL      0.266816
     74 N8          6.8080    2.8760   -0.7850 n         1 MOL     -0.673545
     75 C23         5.8580    3.9700   -1.0100 c3        1 MOL      0.205930
     76 C24         4.8240    4.2720    0.0920 c         1 MOL      0.493633
     77 O12         5.1560    4.0910    1.2740 o         1 MOL     -0.464017
     78 H34         7.7760    3.0930   -0.5900 hn        1 MOL      0.377940
     79 H35         5.2970    3.7460   -1.9220 h1        1 MOL      0.014604
     80 H36         6.3190    4.9220   -1.2570 h1        1 MOL      0.014604
     81 N9          3.5630    4.6870   -0.2440 n         1 MOL     -0.632881
     82 C25         2.3840    4.7250    0.6990 c3        1 MOL      0.193205
     83 C26         2.0030    3.2620    1.1920 c         1 MOL      0.466277
     84 O13         2.6390    2.2430    0.7840 o         1 MOL     -0.491797
     85 C27         1.3880    5.5980   -0.0180 c3        1 MOL     -0.157773
     86 C28         1.6860    7.0650   -0.2890 ca        1 MOL      0.123191
     87 C29         1.9270    7.9930    0.7690 ca        1 MOL     -0.181662
     88 C30         1.7180    7.5290   -1.6190 ca        1 MOL     -0.181662
     89 C31         2.2510    9.3250    0.4950 ca        1 MOL     -0.236672
     90 C32         2.0330    8.8600   -1.9340 ca        1 MOL     -0.236672
     91 C33         2.2990    9.7940   -0.8600 ca        1 MOL      0.289734
     92 O14         2.7690   11.0080   -1.2090 oh        1 MOL     -0.433326
     93 H37         3.4180    4.9600   -1.2100 hn        1 MOL      0.319734
     94 H38         2.6530    5.2880    1.5840 h1        1 MOL      0.093322
     95 H39         0.4140    5.5110    0.4680 hc        1 MOL      0.020907
     96 H40         1.2930    5.0950   -0.9810 hc        1 MOL      0.020907
     97 H41         1.8900    7.6650    1.7930 ha        1 MOL      0.132848
     98 H42         1.5320    6.7920   -2.3820 ha        1 MOL      0.132848
     99 H43         2.4920    9.9520    1.3350 ha        1 MOL      0.163711
    100 H44         2.0190    9.1900   -2.9610 ha        1 MOL      0.163711
    101 H45         2.9560   11.4520   -0.3820 ho        1 MOL      0.360789
    102 N10         1.0050    3.1180    2.0840 n         1 MOL     -0.535798
    103 C34         0.5030    1.9210    2.8020 c3        1 MOL      0.033298
    104 C35        -0.1100    0.8660    1.8820 c         1 MOL      0.322971
    105 O15         0.6300    0.2390    1.1520 o         1 MOL     -0.381973
    106 C36         1.5710    1.4570    3.8290 c3        1 MOL      0.225854
    107 C37         1.0930    0.2840    4.8100 c3        1 MOL     -0.127625
    108 C38         2.2650    2.6320    4.5980 c3        1 MOL     -0.130575
    109 C39         0.3450    0.7220    6.0030 c3        1 MOL     -0.195158
    110 H46         0.5970    4.0140    2.3410 hn        1 MOL      0.301634
    111 H47        -0.2620    2.2760    3.4930 h1        1 MOL      0.078408
    112 H48         2.4610    1.1080    3.3130 hc        1 MOL      0.012771
    113 H49         2.0700   -0.1220    5.0590 hc        1 MOL      0.084826
    114 H50         0.4680   -0.4400    4.2930 hc        1 MOL      0.084826
    115 H51         2.7510    3.3930    3.9860 hc        1 MOL      0.032973
    116 H52         1.5780    3.1960    5.2230 hc        1 MOL      0.032973
    117 H53         2.9590    2.2680    5.3600 hc        1 MOL      0.032973
    118 H54         0.8860    1.5030    6.5320 hc        1 MOL      0.049667
    119 H55        -0.5850    1.2070    5.7060 hc        1 MOL      0.049667
    120 H56         0.2640   -0.0980    6.7120 hc        1 MOL      0.049667
    121 N11        -1.4450    0.6510    1.8430 n         1 MOL     -0.238485
    122 C40        -2.0670   -0.1060    0.7890 c3        1 MOL     -0.265135
    123 C41        -3.5450    0.2850    0.5540 c         1 MOL      0.557389
    124 O16        -4.2990    0.5550    1.5120 o         1 MOL     -0.498798
    125 C42        -2.0380   -1.6090    1.0510 c3        1 MOL      0.130487
    126 O17        -0.7350   -2.1610    1.2860 oh        1 MOL     -0.422842
    127 H57        -2.0170    1.1940    2.4790 hn        1 MOL      0.253414
    128 H58        -1.5700    0.1480   -0.1500 h1        1 MOL      0.172842
    129 H59        -2.4360   -2.0410    0.1420 h1        1 MOL      0.049960
    130 H60        -2.6840   -1.8370    1.9000 h1        1 MOL      0.049960
    131 H61        -0.1420   -1.4230    1.4040 ho        1 MOL      0.395551
    132 N12        -3.9220    0.3450   -0.6890 n         1 MOL     -0.362105
    133 C43        -5.3540    0.6370   -1.1070 c3        1 MOL     -0.044899
    134 C44        -5.5620   -0.0420   -2.5120 c         1 MOL      0.766575
    135 O18        -4.6320   -0.1570   -3.2810 o         1 MOL     -0.593696
    136 C45        -5.5340    2.1580   -1.3350 c3        1 MOL     -0.358485
    137 H62        -3.3040    0.1260   -1.4650 hn        1 MOL      0.200151
    138 H63        -6.0310    0.1930   -0.3700 h1        1 MOL      0.157752
    139 H64        -5.4720    2.7200   -0.4020 hc        1 MOL      0.117062
    140 H65        -4.6670    2.5070   -1.9030 hc        1 MOL      0.117062
    141 H66        -6.4180    2.3250   -1.9550 hc        1 MOL      0.117062
    142 N13        -6.7060   -0.6940   -2.8030 n         1 MOL     -0.804526
    143 C46        -8.0000   -0.6470   -2.1090 c3        1 MOL      0.575236
    144 C47        -9.0180    0.3140   -2.6280 c         1 MOL      0.502326
    145 O19        -8.9750    0.7430   -3.7560 o         1 MOL     -0.541245
    146 C48        -8.5440   -2.1270   -2.2390 c3        1 MOL     -0.496497
    147 H67        -6.6910   -1.1870   -3.6890 hn        1 MOL      0.357917
    148 H68        -7.7790   -0.3320   -1.0920 h1        1 MOL     -0.104041
    149 H69        -9.5750   -2.2800   -1.9130 hc        1 MOL      0.142311
    150 H70        -8.4870   -2.5100   -3.2530 hc        1 MOL      0.142311
    151 H71        -7.9910   -2.7110   -1.4980 hc        1 MOL      0.142311
    152 N14        -9.9480    0.6860   -1.7620 n         1 MOL     -0.600917
    153 C49       -10.2080    0.2980   -0.3090 c3        1 MOL     -0.029872
    154 C50        -9.3890    1.1050    0.7360 c         1 MOL      0.550336
    155 O20        -8.6900    0.4960    1.6040 o         1 MOL     -0.557358
    156 C51       -11.7160    0.4210   -0.0890 c3        1 MOL      0.170695
    157 C52       -12.2970   -0.1210    1.2370 c3        1 MOL     -0.400752
    158 C53       -13.8530   -0.0090    1.2280 c         1 MOL      0.719326
    159 O21       -14.4320    1.0050    1.7610 o         1 MOL     -0.637895
    160 O22       -14.5790   -0.8350    0.6700 o         1 MOL     -0.637895
    161 H72       -10.6280    1.3380   -2.1340 hn        1 MOL      0.321484
    162 H73        -9.9480   -0.7480   -0.1740 h1        1 MOL      0.082858
    163 H74       -12.0820   -0.1840   -0.9300 hc        1 MOL     -0.001893
    164 H75       -11.9770    1.4690   -0.1730 hc        1 MOL     -0.001893
    165 H76       -11.8640    0.4640    2.0480 hc        1 MOL      0.089658
    166 H77       -11.9320   -1.1430    1.3690 hc        1 MOL      0.089658
    167 N15        -9.2250    2.3880    0.5210 n         1 MOL     -0.271644
    168 C54        -8.5670    3.2950    1.4270 c3        1 MOL     -0.290150
    169 H78        -8.1230    4.1150    0.8600 h1        1 MOL      0.129800
    170 H79        -9.2940    3.6950    2.1340 h1        1 MOL      0.129800
    171 H80        -7.7850    2.7650    1.9700 h1        1 MOL      0.129800
    172 H81        -9.6830    2.8050   -0.2820 hn        1 MOL      0.257839
    173 Ca1         2.6050    0.2240   -0.8350 Ca        1 MOL      1.762516
    174 O23         0.1680   -0.9700   -1.6400 oh        1 MOL     -0.837512
    175 H82        -0.7770   -0.9480   -1.7430 ho        1 MOL      0.415195
    176 H83         0.4710   -1.6070   -2.2770 ho        1 MOL      0.415195
    177 O24         0.9990    2.3650   -1.9240 oh        1 MOL     -0.837512
    178 H84         1.5420    3.0630   -2.2720 ho        1 MOL      0.415195
    179 H85         0.1450    2.7670   -1.7800 ho        1 MOL      0.415195
    180 O25         3.3110    1.0680   -3.3490 oh        1 MOL     -0.837512
    181 H86         4.2130    0.9850   -3.6410 ho        1 MOL      0.415195
    182 H87         2.7820    0.9680   -4.1400 ho        1 MOL      0.415195
@<TRIPOS>BOND
     1    1    2 1   
     2    1    4 1   
     3    1    5 1   
     4    1    6 1   
     5    2    3 2   
     6    2    7 1   
     7    7    8 1   
     8    7   15 1   
     9    8    9 1   
    10    8   11 1   
    11    8   16 1   
    12    9   10 2   
    13    9   19 1   
    14   11   12 1   
    15   11   17 1   
    16   11   18 1   
    17   12   13 1   
    18   12   14 1   
    19   19   20 1   
    20   19   28 1   
    21   20   21 1   
    22   20   23 1   
    23   20   29 1   
    24   21   22 2   
    25   21   41 1   
    26   23   24 1   
    27   23   30 1   
    28   23   31 1   
    29   24   25 1   
    30   24   32 1   
    31   24   33 1   
    32   25   26 1   
    33   25   34 1   
    34   25   35 1   
    35   26   27 1   
    36   26   36 1   
    37   26   37 1   
    38   27   38 1   
    39   27   39 1   
    40   27   40 1   
    41   41   42 1   
    42   41   49 1   
    43   42   43 1   
    44   42   45 1   
    45   42   50 1   
    46   43   44 2   
    47   43   53 1   
    48   45   46 1   
    49   45   51 1   
    50   45   52 1   
    51   46   47 1   
    52   46   48 1   
    53   53   54 1   
    54   53   57 1   
    55   54   55 1   
    56   54   58 1   
    57   54   59 1   
    58   55   56 2   
    59   55   60 1   
    60   60   61 1   
    61   60   68 1   
    62   61   62 1   
    63   61   64 1   
    64   61   69 1   
    65   62   63 2   
    66   62   74 1   
    67   64   65 1   
    68   64   70 1   
    69   64   71 1   
    70   65   66 1   
    71   65   67 2   
    72   66   72 1   
    73   66   73 1   
    74   74   75 1   
    75   74   78 1   
    76   75   76 1   
    77   75   79 1   
    78   75   80 1   
    79   76   77 2   
    80   76   81 1   
    81   81   82 1   
    82   81   93 1   
    83   82   83 1   
    84   82   85 1   
    85   82   94 1   
    86   83   84 2   
    87   83  102 1   
    88   85   86 1   
    89   85   95 1   
    90   85   96 1   
    91   86   87 ar  
    92   86   88 ar  
    93   87   89 ar  
    94   87   97 1   
    95   88   90 ar  
    96   88   98 1   
    97   89   91 ar  
    98   89   99 1   
    99   90   91 ar  
   100   90  100 1   
   101   91   92 1   
   102   92  101 1   
   103  102  103 1   
   104  102  110 1   
   105  103  104 1   
   106  103  106 1   
   107  103  111 1   
   108  104  105 2   
   109  104  121 1   
   110  106  107 1   
   111  106  108 1   
   112  106  112 1   
   113  107  109 1   
   114  107  113 1   
   115  107  114 1   
   116  108  115 1   
   117  108  116 1   
   118  108  117 1   
   119  109  118 1   
   120  109  119 1   
   121  109  120 1   
   122  121  122 1   
   123  121  127 1   
   124  122  123 1   
   125  122  125 1   
   126  122  128 1   
   127  123  124 2   
   128  123  132 1   
   129  125  126 1   
   130  125  129 1   
   131  125  130 1   
   132  126  131 1   
   133  132  133 1   
   134  132  137 1   
   135  133  134 1   
   136  133  136 1   
   137  133  138 1   
   138  134  135 2   
   139  134  142 1   
   140  136  139 1   
   141  136  140 1   
   142  136  141 1   
   143  142  143 1   
   144  142  147 1   
   145  143  144 1   
   146  143  146 1   
   147  143  148 1   
   148  144  145 2   
   149  144  152 1   
   150  146  149 1   
   151  146  150 1   
   152  146  151 1   
   153  152  153 1   
   154  152  161 1   
   155  153  154 1   
   156  153  156 1   
   157  153  162 1   
   158  154  155 2   
   159  154  167 1   
   160  156  157 1   
   161  156  163 1   
   162  156  164 1   
   163  157  158 1   
   164  157  165 1   
   165  157  166 1   
   166  158  159 1   
   167  158  160 1   
   168  167  168 1   
   169  167  172 1   
   170  168  169 1   
   171  168  170 1   
   172  168  171 1   
   173  174  175 1   
   174  174  176 1   
   175  177  178 1   
   176  177  179 1   
   177  180  181 1   
   178  180  182 1   
@<TRIPOS>SUBSTRUCTURE
     1 MOL         1 TEMP              0 ****  ****    0 ROOT
