@<TRIPOS>MOLECULE
MOL
  201   193     1     0     0
SMALL
resp


@<TRIPOS>ATOM
      1 C1          1.5050    7.0870    4.0610 c3        1 MOL     -0.386274
      2 C2          1.4190    6.3840    2.7090 c         1 MOL      0.650501
      3 O1          0.9490    5.2500    2.6310 o         1 MOL     -0.553804
      4 H1          0.5280    7.0680    4.5430 hc        1 MOL      0.100351
      5 H2          2.2300    6.5730    4.6930 hc        1 MOL      0.100351
      6 H3          1.8180    8.1200    3.9150 hc        1 MOL      0.100351
      7 N1          1.8080    7.0060    1.5650 n         1 MOL     -0.430843
      8 C3          1.5290    6.5050    0.2300 c3        1 MOL     -0.036239
      9 C4          2.4460    5.3320   -0.1970 c         1 MOL      0.373933
     10 O2          2.4210    5.0000   -1.4220 o         1 MOL     -0.534436
     11 C5          1.6320    7.6250   -0.7660 c3        1 MOL     -0.088886
     12 C6          2.8510    8.5720   -0.8000 c         1 MOL      0.669431
     13 O3          3.2470    9.1300   -1.8380 o         1 MOL     -0.676691
     14 O4          3.4100    8.8560    0.3000 o         1 MOL     -0.676691
     15 H4          2.3790    7.8440    1.5930 hn        1 MOL      0.208845
     16 H5          0.4760    6.2280    0.2100 h1        1 MOL      0.113539
     17 H6          0.7390    8.2370   -0.6740 hc        1 MOL      0.031363
     18 H7          1.6030    7.2990   -1.8050 hc        1 MOL      0.031363
     19 N2          3.0850    4.6400    0.7150 n         1 MOL     -0.207522
     20 C7          3.8910    3.3980    0.5390 c3        1 MOL      0.156922
     21 C8          3.6600    2.3920    1.6020 c         1 MOL      0.376353
     22 O5          3.7220    2.7770    2.7840 o         1 MOL     -0.528121
     23 C9          5.3500    3.7330    0.4700 c3        1 MOL     -0.593382
     24 C10         5.7220    4.4450   -0.7990 c3        1 MOL      0.005428
     25 C11         7.2290    4.3340   -0.9360 c3        1 MOL     -0.128966
     26 C12         8.0690    4.9810    0.2130 c3        1 MOL      0.032054
     27 N3          7.9980    6.4750    0.2440 n4        1 MOL     -0.452155
     28 H8          2.9170    5.0220    1.6360 hn        1 MOL      0.209520
     29 H9          3.6160    2.8470   -0.3600 h1        1 MOL      0.081921
     30 H10         5.7920    2.7400    0.4360 hc        1 MOL      0.195115
     31 H11         5.6860    4.3420    1.3080 hc        1 MOL      0.195115
     32 H12         5.4860    5.5080   -0.8020 hc        1 MOL      0.087333
     33 H13         5.2850    3.9070   -1.6460 hc        1 MOL      0.087333
     34 H14         7.5950    4.6740   -1.9110 hc        1 MOL      0.068934
     35 H15         7.4390    3.2640   -0.8640 hc        1 MOL      0.068934
     36 H16         9.1010    4.6420    0.2860 hx        1 MOL      0.095080
     37 H17         7.7110    4.6350    1.1870 hx        1 MOL      0.095080
     38 H18         8.1170    6.8950   -0.6610 hn        1 MOL      0.353459
     39 H19         7.0930    6.7860    0.5540 hn        1 MOL      0.353459
     40 H20         8.6840    6.8030    0.9150 hn        1 MOL      0.353459
     41 N4          3.3870    1.1150    1.2960 n         1 MOL     -0.085788
     42 C13         3.4750    0.3740   -0.0280 c3        1 MOL     -0.226780
     43 C14         4.6670    0.6600   -0.9450 c         1 MOL      0.660316
     44 O6          4.5250    1.2880   -1.9920 o         1 MOL     -0.542714
     45 C15         2.0960    0.4860   -0.7930 c3        1 MOL     -0.400213
     46 C16         0.9630    0.1180    0.1870 c         1 MOL      0.690934
     47 O7          0.0360    0.9900    0.4580 o         1 MOL     -0.648630
     48 O8          0.9200   -1.0250    0.6410 o         1 MOL     -0.648630
     49 H21         3.3250    0.5630    2.1320 hn        1 MOL      0.184559
     50 H22         3.4750   -0.6940    0.1830 h1        1 MOL      0.145308
     51 H23         2.0900   -0.1110   -1.7070 hc        1 MOL      0.151905
     52 H24         1.9500    1.5340   -1.0570 hc        1 MOL      0.151905
     53 N5          5.9250    0.3310   -0.5900 n         1 MOL     -0.550700
     54 C17         6.2710   -0.3000    0.7350 c3        1 MOL      0.021117
     55 C18         7.6440   -1.0310    0.7010 c         1 MOL      0.596029
     56 O9          8.6200   -0.5190    0.1770 o         1 MOL     -0.531302
     57 H25         6.6170    0.4710   -1.3170 hn        1 MOL      0.319427
     58 H26         5.4450   -0.9510    1.0310 h1        1 MOL      0.048545
     59 H27         6.3590    0.5340    1.4370 h1        1 MOL      0.048545
     60 N6          7.7170   -2.2120    1.3550 n         1 MOL     -0.541550
     61 C19         6.6480   -2.8550    2.1690 c3        1 MOL      0.069913
     62 C20         5.6370   -3.6520    1.3940 c         1 MOL      0.806530
     63 O10         4.4970   -3.9190    1.8310 o         1 MOL     -0.678272
     64 C21         7.1690   -3.7210    3.3800 c3        1 MOL     -0.468757
     65 C22         8.2230   -2.9290    4.1960 c         1 MOL      0.849139
     66 O11         7.8840   -1.9340    4.8550 o         1 MOL     -0.690055
     67 O12         9.3900   -3.3240    4.2780 o         1 MOL     -0.690055
     68 H28         8.5740   -2.7520    1.3300 hn        1 MOL      0.323781
     69 H29         6.1370   -2.0380    2.6770 h1        1 MOL      0.067404
     70 H30         7.7100   -4.6110    3.0560 hc        1 MOL      0.103909
     71 H31         6.2650   -4.0280    3.9040 hc        1 MOL      0.103909
     72 N7          5.9580   -3.9980    0.1310 n         1 MOL     -0.593980
     73 C23         5.1800   -4.7460   -0.8220 c3        1 MOL      0.093539
     74 C24         4.5240   -3.8760   -1.9460 c         1 MOL      0.576031
     75 O13         4.8420   -2.6760   -2.0920 o         1 MOL     -0.486595
     76 H32         6.9630   -4.0670    0.0080 hn        1 MOL      0.300934
     77 H33         4.4560   -5.3590   -0.2850 h1        1 MOL      0.043503
     78 H34         5.7620   -5.5540   -1.2550 h1        1 MOL      0.043503
     79 N8          3.5980   -4.4490   -2.7670 n         1 MOL     -0.611483
     80 C25         2.9210   -3.7430   -3.8350 c3        1 MOL     -0.155282
     81 C26         1.6510   -3.0610   -3.3590 c         1 MOL      0.901153
     82 O14         0.8930   -3.5800   -2.5400 o         1 MOL     -0.688967
     83 C27         2.6020   -4.7770   -5.0030 c3        1 MOL      0.405908
     84 C28         3.9740   -4.9200   -5.7140 c3        1 MOL     -0.349353
     85 O15         1.6970   -4.2120   -5.9820 oh        1 MOL     -0.636076
     86 H35         3.4630   -5.4470   -2.6610 hn        1 MOL      0.299522
     87 H36         3.6290   -3.0250   -4.2600 h1        1 MOL      0.112205
     88 H37         2.3110   -5.7680   -4.6390 h1        1 MOL      0.068825
     89 H38         2.0170   -3.3820   -6.3540 ho        1 MOL      0.402087
     90 H39         4.1320   -4.2220   -6.5430 hc        1 MOL      0.089312
     91 H40         4.8070   -4.7830   -5.0290 hc        1 MOL      0.089312
     92 H41         3.9960   -5.9170   -6.1560 hc        1 MOL      0.089312
     93 N9          1.3320   -1.8140   -3.7870 n         1 MOL     -0.577052
     94 C29         0.1350   -1.0560   -3.4180 c3        1 MOL     -0.049021
     95 C30        -1.1060   -1.7900   -3.8270 c         1 MOL      0.649082
     96 O16        -1.2010   -2.3640   -4.8840 o         1 MOL     -0.550506
     97 C31         0.2070    0.3630   -4.0510 c3        1 MOL     -0.026394
     98 C32        -0.6930    1.5100   -3.4210 c3        1 MOL      0.258036
     99 C33         0.2170    0.4010   -5.5980 c3        1 MOL     -0.072249
    100 C34        -0.4360    3.0080   -3.7760 c3        1 MOL     -0.442039
    101 H42         2.0140   -1.3560   -4.3860 hn        1 MOL      0.283326
    102 H43         0.2040   -0.9460   -2.3350 h1        1 MOL      0.030381
    103 H44         1.2150    0.6650   -3.7630 hc        1 MOL      0.046009
    104 H45        -0.8730    1.3510   -2.3500 hc        1 MOL     -0.036224
    105 H46        -1.6760    1.3590   -3.8700 hc        1 MOL     -0.036224
    106 H47         0.5840    1.3300   -6.0410 hc        1 MOL      0.020268
    107 H48         0.8060   -0.4190   -6.0130 hc        1 MOL      0.020268
    108 H49        -0.7700    0.2790   -6.0380 hc        1 MOL      0.020268
    109 H50        -1.1740    3.6560   -3.3130 hc        1 MOL      0.117080
    110 H51         0.4980    3.2340   -3.2770 hc        1 MOL      0.117080
    111 H52        -0.6040    3.1140   -4.8460 hc        1 MOL      0.117080
    112 N10        -2.1620   -1.8930   -2.9970 n         1 MOL     -0.516040
    113 C35        -3.4330   -2.4880   -3.3430 c3        1 MOL      0.195814
    114 C36        -4.5850   -1.5390   -3.0600 c         1 MOL      0.494532
    115 O17        -5.6310   -1.6310   -3.7440 o         1 MOL     -0.515512
    116 C37        -3.5370   -3.7990   -2.6260 c3        1 MOL      0.060073
    117 C38        -4.8790   -4.5420   -2.8620 c3        1 MOL     -0.312815
    118 O18        -3.3950   -3.6350   -1.2550 oh        1 MOL     -0.585666
    119 H53        -2.0400   -1.5160   -2.0680 hn        1 MOL      0.244030
    120 H54        -3.6510   -2.6920   -4.3920 h1        1 MOL      0.072129
    121 H55        -2.6980   -4.4150   -2.9410 h1        1 MOL      0.097664
    122 H56        -3.7940   -4.4110   -0.8550 ho        1 MOL      0.436689
    123 H57        -5.5000   -4.0770   -2.0970 hc        1 MOL      0.092741
    124 H58        -5.3970   -4.3650   -3.8040 hc        1 MOL      0.092741
    125 H59        -4.9560   -5.6130   -2.7150 hc        1 MOL      0.092741
    126 N11        -4.3270   -0.5770   -2.1200 n         1 MOL     -0.498550
    127 C39        -5.2430    0.4570   -1.5610 c3        1 MOL     -0.023591
    128 C40        -6.4920   -0.1490   -0.7950 c         1 MOL      0.508108
    129 O19        -6.8000   -1.3170   -0.8610 o         1 MOL     -0.441606
    130 C41        -5.6610    1.4700   -2.6840 c3        1 MOL      0.264969
    131 C42        -4.4530    2.1390   -3.4330 c3        1 MOL     -0.043442
    132 O20        -6.3040    2.5180   -2.0210 oh        1 MOL     -0.608367
    133 H60        -3.3890   -0.5460   -1.7450 hn        1 MOL      0.345533
    134 H61        -4.6250    1.0810   -0.9110 h1        1 MOL      0.132271
    135 H62        -6.2820    0.9910   -3.4350 h1        1 MOL      0.038836
    136 H63        -6.9000    2.8570   -2.6940 ho        1 MOL      0.356422
    137 H64        -4.7500    2.7730   -4.2740 hc        1 MOL      0.011833
    138 H65        -3.7930    2.6640   -2.7460 hc        1 MOL      0.011833
    139 H66        -3.9440    1.2770   -3.8750 hc        1 MOL      0.011833
    140 N12        -7.2090    0.7150   -0.0400 n         1 MOL     -0.494049
    141 C43        -8.5240    0.3920    0.5910 c3        1 MOL     -0.003669
    142 C44        -8.3220   -0.4830    1.8650 c         1 MOL      0.456839
    143 O21        -9.3090   -1.0420    2.3640 o         1 MOL     -0.500466
    144 C45        -9.3170    1.7230    0.7270 c3        1 MOL      0.076994
    145 C46        -9.3820    2.5730   -0.5080 c3        1 MOL     -0.114407
    146 C47       -10.3320    3.7880   -0.4080 c3        1 MOL     -0.022440
    147 C48       -10.7030    4.4780   -1.6890 c3        1 MOL      0.024461
    148 N13       -11.6620    5.5240   -1.3060 n4        1 MOL     -0.217859
    149 H67        -6.8540    1.6620    0.0070 hn        1 MOL      0.302410
    150 H68        -9.0290   -0.3150   -0.0720 h1        1 MOL      0.117078
    151 H69        -8.9560    2.2660    1.6040 hc        1 MOL      0.019531
    152 H70       -10.3510    1.4230    0.9220 hc        1 MOL      0.019531
    153 H71        -9.6560    1.9780   -1.3840 hc        1 MOL      0.051913
    154 H72        -8.3910    2.9940   -0.6990 hc        1 MOL      0.051913
    155 H73        -9.8810    4.4380    0.3360 hc        1 MOL      0.034824
    156 H74       -11.2920    3.5050    0.0150 hc        1 MOL      0.034824
    157 H75       -11.0960    3.8120   -2.4570 hx        1 MOL      0.083762
    158 H76        -9.8040    4.9000   -2.1350 hx        1 MOL      0.083762
    159 H77       -11.2220    6.2160   -0.7280 hn        1 MOL      0.239188
    160 H78       -12.0510    5.9560   -2.1320 hn        1 MOL      0.239188
    161 H79       -12.4000    5.2350   -0.6820 hn        1 MOL      0.239188
    162 N14        -7.0630   -0.6460    2.4480 n         1 MOL     -0.284753
    163 C49        -6.6950   -1.5330    3.5240 c3        1 MOL     -0.036594
    164 C50        -7.1720   -1.1290    4.8970 c         1 MOL      0.506776
    165 O22        -7.5590    0.0580    5.1020 o         1 MOL     -0.515118
    166 C51        -5.2050   -1.6850    3.5910 c3        1 MOL     -0.320532
    167 C52        -4.5750   -2.2560    2.2500 c3        1 MOL      0.002351
    168 C53        -3.0920   -2.5830    2.1950 c         1 MOL      0.738047
    169 O23        -2.6700   -3.7410    2.1140 o         1 MOL     -0.805654
    170 O24        -2.2860   -1.6610    2.1660 o         1 MOL     -0.805654
    171 H80        -6.2970   -0.1390    2.0310 hn        1 MOL      0.212452
    172 H81        -7.1130   -2.5240    3.3730 h1        1 MOL      0.072358
    173 H82        -4.9020   -2.3250    4.4200 hc        1 MOL      0.132159
    174 H83        -4.7810   -0.6770    3.6670 hc        1 MOL      0.132159
    175 H84        -4.8010   -1.5900    1.4200 hc        1 MOL      0.022450
    176 H85        -5.0520   -3.1660    1.8710 hc        1 MOL      0.022450
    177 N15        -7.0660   -2.0340    5.8770 n         1 MOL     -0.286971
    178 C54        -7.7110   -2.0040    7.1400 c3        1 MOL     -0.413654
    179 H86        -8.7900   -1.9440    6.9950 h1        1 MOL      0.159743
    180 H87        -7.4680   -2.9110    7.6950 h1        1 MOL      0.159743
    181 H88        -7.3720   -1.1330    7.7020 h1        1 MOL      0.159743
    182 H89        -6.5970   -2.8830    5.6000 hn        1 MOL      0.269741
    183 Ca1         0.0340   -2.7580    2.1780 Ca        1 MOL      1.657225
    184 O25        -0.9130   -3.4590   -0.3900 oh        1 MOL     -0.735456
    185 H90        -1.7510   -3.4230   -0.8360 ho        1 MOL      0.372727
    186 H91        -0.2650   -3.4890   -1.0950 ho        1 MOL      0.372727
    187 O26         0.8760   -0.5490    3.5420 oh        1 MOL     -0.735456
    188 H92         1.8070   -0.6720    3.6800 ho        1 MOL      0.372727
    189 H93         0.7700    0.3920    3.3880 ho        1 MOL      0.372727
    190 O27         2.0540   -3.8090    0.8050 oh        1 MOL     -0.735456
    191 H94         2.8880   -4.0130    1.2310 ho        1 MOL      0.372727
    192 H95         1.8720   -4.5560    0.2450 ho        1 MOL      0.372727
    193 O28        -1.2420   -3.0870    4.6940 oh        1 MOL     -0.735456
    194 H96        -1.1780   -3.1440    5.6430 ho        1 MOL      0.372727
    195 H97        -1.8330   -3.8060    4.4460 ho        1 MOL      0.372727
    196 O29         1.9840   -3.7100    3.7570 oh        1 MOL     -0.735456
    197 H98         2.2030   -4.5660    3.4100 ho        1 MOL      0.372727
    198 H99         2.0210   -3.8100    4.7060 ho        1 MOL      0.372727
    199 O30         0.0470   -5.4640    2.5670 oh        1 MOL     -0.735456
    200 H100       -0.3770   -6.1150    2.0030 ho        1 MOL      0.372727
    201 H101        0.4020   -5.9690    3.2920 ho        1 MOL      0.372727
@<TRIPOS>BOND
     1    1    2 1   
     2    1    4 1   
     3    1    5 1   
     4    1    6 1   
     5    2    3 2   
     6    2    7 1   
     7    7    8 1   
     8    7   15 1   
     9    8    9 1   
    10    8   11 1   
    11    8   16 1   
    12    9   10 2   
    13    9   19 1   
    14   11   12 1   
    15   11   17 1   
    16   11   18 1   
    17   12   13 1   
    18   12   14 1   
    19   19   20 1   
    20   19   28 1   
    21   20   21 1   
    22   20   23 1   
    23   20   29 1   
    24   21   22 2   
    25   21   41 1   
    26   23   24 1   
    27   23   30 1   
    28   23   31 1   
    29   24   25 1   
    30   24   32 1   
    31   24   33 1   
    32   25   26 1   
    33   25   34 1   
    34   25   35 1   
    35   26   27 1   
    36   26   36 1   
    37   26   37 1   
    38   27   38 1   
    39   27   39 1   
    40   27   40 1   
    41   41   42 1   
    42   41   49 1   
    43   42   43 1   
    44   42   45 1   
    45   42   50 1   
    46   43   44 2   
    47   43   53 1   
    48   45   46 1   
    49   45   51 1   
    50   45   52 1   
    51   46   47 1   
    52   46   48 1   
    53   53   54 1   
    54   53   57 1   
    55   54   55 1   
    56   54   58 1   
    57   54   59 1   
    58   55   56 2   
    59   55   60 1   
    60   60   61 1   
    61   60   68 1   
    62   61   62 1   
    63   61   64 1   
    64   61   69 1   
    65   62   63 2   
    66   62   72 1   
    67   64   65 1   
    68   64   70 1   
    69   64   71 1   
    70   65   66 1   
    71   65   67 1   
    72   72   73 1   
    73   72   76 1   
    74   73   74 1   
    75   73   77 1   
    76   73   78 1   
    77   74   75 2   
    78   74   79 1   
    79   79   80 1   
    80   79   86 1   
    81   80   81 1   
    82   80   83 1   
    83   80   87 1   
    84   81   82 2   
    85   81   93 1   
    86   83   84 1   
    87   83   85 1   
    88   83   88 1   
    89   84   90 1   
    90   84   91 1   
    91   84   92 1   
    92   85   89 1   
    93   93   94 1   
    94   93  101 1   
    95   94   95 1   
    96   94   97 1   
    97   94  102 1   
    98   95   96 2   
    99   95  112 1   
   100   97   98 1   
   101   97   99 1   
   102   97  103 1   
   103   98  100 1   
   104   98  104 1   
   105   98  105 1   
   106   99  106 1   
   107   99  107 1   
   108   99  108 1   
   109  100  109 1   
   110  100  110 1   
   111  100  111 1   
   112  112  113 1   
   113  112  119 1   
   114  113  114 1   
   115  113  116 1   
   116  113  120 1   
   117  114  115 2   
   118  114  126 1   
   119  116  117 1   
   120  116  118 1   
   121  116  121 1   
   122  117  123 1   
   123  117  124 1   
   124  117  125 1   
   125  118  122 1   
   126  126  127 1   
   127  126  133 1   
   128  127  128 1   
   129  127  130 1   
   130  127  134 1   
   131  128  129 2   
   132  128  140 1   
   133  130  131 1   
   134  130  132 1   
   135  130  135 1   
   136  131  137 1   
   137  131  138 1   
   138  131  139 1   
   139  132  136 1   
   140  140  141 1   
   141  140  149 1   
   142  141  142 1   
   143  141  144 1   
   144  141  150 1   
   145  142  143 2   
   146  142  162 1   
   147  144  145 1   
   148  144  151 1   
   149  144  152 1   
   150  145  146 1   
   151  145  153 1   
   152  145  154 1   
   153  146  147 1   
   154  146  155 1   
   155  146  156 1   
   156  147  148 1   
   157  147  157 1   
   158  147  158 1   
   159  148  159 1   
   160  148  160 1   
   161  148  161 1   
   162  162  163 1   
   163  162  171 1   
   164  163  164 1   
   165  163  166 1   
   166  163  172 1   
   167  164  165 2   
   168  164  177 1   
   169  166  167 1   
   170  166  173 1   
   171  166  174 1   
   172  167  168 1   
   173  167  175 1   
   174  167  176 1   
   175  168  169 1   
   176  168  170 1   
   177  177  178 1   
   178  177  182 1   
   179  178  179 1   
   180  178  180 1   
   181  178  181 1   
   182  184  185 1   
   183  184  186 1   
   184  187  188 1   
   185  187  189 1   
   186  190  191 1   
   187  190  192 1   
   188  193  194 1   
   189  193  195 1   
   190  196  197 1   
   191  196  198 1   
   192  199  200 1   
   193  199  201 1   
@<TRIPOS>SUBSTRUCTURE
     1 MOL         1 TEMP              0 ****  ****    0 ROOT
