@<TRIPOS>MOLECULE
MOL
  189   185     1     0     0
SMALL
resp


@<TRIPOS>ATOM
      1 C1          9.6380    0.9240    2.5940 c3        1 MOL     -0.475523
      2 C2          8.3970    0.7850    1.7090 c         1 MOL      0.771154
      3 O1          7.3530    0.4950    2.1660 o         1 MOL     -0.631434
      4 H1         10.5330    0.7650    1.9910 hc        1 MOL      0.115767
      5 H2          9.6660    1.9240    3.0270 hc        1 MOL      0.115767
      6 H3          9.6020    0.1830    3.3920 hc        1 MOL      0.115767
      7 N1          8.6200    0.9680    0.3770 n         1 MOL     -0.525775
      8 C3          7.5060    1.0760   -0.5530 c3        1 MOL      0.167956
      9 C4          7.1180   -0.3250   -1.1210 c         1 MOL      0.248940
     10 O2          7.0980   -0.5520   -2.3320 o         1 MOL     -0.406073
     11 C5          7.8410    2.1490   -1.6140 c3        1 MOL     -0.324806
     12 C6          9.1510    1.9940   -2.3750 c         1 MOL      0.721100
     13 O3          9.4780    2.9700   -3.1240 o         1 MOL     -0.654728
     14 O4          9.8640    0.9690   -2.3700 o         1 MOL     -0.654728
     15 H4          9.5410    1.1900    0.0220 hn        1 MOL      0.267944
     16 H5          6.6640    1.5010   -0.0040 h1        1 MOL      0.027062
     17 H6          7.6950    3.1260   -1.1550 hc        1 MOL      0.095290
     18 H7          7.0990    2.0890   -2.4080 hc        1 MOL      0.095290
     19 N2          6.8080   -1.3390   -0.2600 n         1 MOL     -0.043717
     20 C7          6.4480   -2.7730   -0.6210 c3        1 MOL     -0.007740
     21 C8          5.0360   -3.0780   -1.1680 c         1 MOL      0.319038
     22 O5          4.9870   -3.8520   -2.1460 o         1 MOL     -0.527804
     23 C9          6.8110   -3.6680    0.5590 c3        1 MOL      0.010763
     24 C10         8.1750   -3.4160    1.0910 c3        1 MOL      0.191591
     25 C11         9.1780   -4.2940    0.4350 c3        1 MOL     -0.250939
     26 C12        10.6830   -3.9720    0.7680 c3        1 MOL      0.079756
     27 N3         11.1740   -4.3970    2.0970 n4        1 MOL     -0.291885
     28 H8          6.7290   -1.1270    0.7250 hn        1 MOL      0.136253
     29 H9          7.1550   -3.0350   -1.4170 h1        1 MOL      0.078868
     30 H10         6.7210   -4.7090    0.2560 hc        1 MOL      0.020787
     31 H11         6.0740   -3.5670    1.3610 hc        1 MOL      0.020787
     32 H12         8.0890   -3.7850    2.1170 hc        1 MOL     -0.067259
     33 H13         8.4760   -2.3700    1.0910 hc        1 MOL     -0.067259
     34 H14         9.0950   -4.2270   -0.6460 hc        1 MOL      0.094777
     35 H15         8.9090   -5.3080    0.7530 hc        1 MOL      0.094777
     36 H16        10.8660   -2.9030    0.7030 hx        1 MOL      0.087016
     37 H17        11.3870   -4.3580    0.0350 hx        1 MOL      0.087016
     38 H18        12.1660   -4.3450    2.2300 hn        1 MOL      0.262298
     39 H19        10.7240   -3.9640    2.8960 hn        1 MOL      0.262298
     40 H20        10.9270   -5.3600    2.2860 hn        1 MOL      0.262298
     41 N4          3.9090   -2.5380   -0.7640 n         1 MOL     -0.117964
     42 C13         3.6150   -1.5020    0.2860 c3        1 MOL     -0.037034
     43 C14         3.2680   -0.0990   -0.3350 c         1 MOL      0.298168
     44 O6          2.5560   -0.1550   -1.2920 o         1 MOL     -0.448764
     45 C15         2.6410   -1.9470    1.3100 c3        1 MOL     -0.210588
     46 C16         1.4210   -2.6870    0.8240 c         1 MOL      0.523336
     47 O7          0.9290   -2.4060   -0.3000 o         1 MOL     -0.550721
     48 O8          0.9590   -3.5960    1.5220 o         1 MOL     -0.550721
     49 H21         3.1540   -2.8160   -1.3700 hn        1 MOL      0.233772
     50 H22         4.4810   -1.3440    0.9240 h1        1 MOL      0.066917
     51 H23         2.3250   -1.0960    1.9070 hc        1 MOL      0.055217
     52 H24         3.2660   -2.5650    1.9520 hc        1 MOL      0.055217
     53 N5          3.6770    1.0140    0.2500 n         1 MOL     -0.140853
     54 C17         3.3590    2.4030   -0.0550 c3        1 MOL     -0.046770
     55 C18         1.9700    2.8070   -0.6020 c         1 MOL      0.706817
     56 O9          0.9030    2.2900   -0.2830 o         1 MOL     -0.776675
     57 H25         4.2330    0.9100    1.0910 hn        1 MOL      0.228607
     58 H26         4.1160    2.6950   -0.7910 h1        1 MOL      0.057434
     59 H27         3.5060    3.0350    0.8150 h1        1 MOL      0.057434
     60 N6          1.9350    3.8170   -1.5120 n         1 MOL     -0.685590
     61 C19         0.7270    4.3820   -2.1480 c3        1 MOL      0.492467
     62 C20         0.5960    5.9180   -2.1260 c         1 MOL      0.422334
     63 O10         1.5840    6.6130   -2.3410 o         1 MOL     -0.507278
     64 C21         0.5790    3.8000   -3.5620 c3        1 MOL     -0.560569
     65 C22         0.9870    2.3430   -3.7870 c         1 MOL      0.792143
     66 O11         1.8280    1.9550   -4.6100 o         1 MOL     -0.668806
     67 O12         0.3050    1.4810   -3.2120 o         1 MOL     -0.668806
     68 H28         2.8270    4.1690   -1.8180 hn        1 MOL      0.336429
     69 H29        -0.0790    3.8660   -1.6390 h1        1 MOL     -0.054945
     70 H30         1.3620    4.3240   -4.1180 hc        1 MOL      0.135850
     71 H31        -0.3340    4.0600   -4.0930 hc        1 MOL      0.135850
     72 N7         -0.6270    6.4670   -2.0480 n         1 MOL     -0.483517
     73 C23        -1.9370    5.7630   -1.7720 c3        1 MOL     -0.024241
     74 C24        -1.9590    5.3060   -0.3080 c         1 MOL      0.596473
     75 O13        -1.2070    5.6990    0.5180 o         1 MOL     -0.540561
     76 H32        -0.7320    7.4600   -1.9820 hn        1 MOL      0.321342
     77 H33        -1.9050    4.8960   -2.4320 h1        1 MOL      0.074631
     78 H34        -2.7990    6.3800   -2.0200 h1        1 MOL      0.074631
     79 N8         -2.9750    4.5570    0.0880 n         1 MOL     -0.355340
     80 C25        -3.3440    4.2800    1.4670 c3        1 MOL     -0.004359
     81 C26        -2.6240    3.0770    2.1400 c         1 MOL      0.510539
     82 O14        -3.3250    2.2710    2.7430 o         1 MOL     -0.519097
     83 C27        -4.9180    4.2760    1.5560 c3        1 MOL      0.264974
     84 C28        -5.6870    3.2940    0.6870 c3        1 MOL     -0.199628
     85 O15        -5.4260    5.5630    1.1150 oh        1 MOL     -0.607561
     86 H35        -3.6710    4.3140   -0.6150 hn        1 MOL      0.210632
     87 H36        -3.0490    5.1410    2.0730 h1        1 MOL      0.115733
     88 H37        -5.2620    4.0560    2.5660 h1        1 MOL      0.004153
     89 H38        -6.3450    5.3180    1.0230 ho        1 MOL      0.379028
     90 H39        -5.4350    3.6300   -0.3280 hc        1 MOL      0.041781
     91 H40        -5.3010    2.2790    0.8110 hc        1 MOL      0.041781
     92 H41        -6.7530    3.1750    0.8660 hc        1 MOL      0.041781
     93 N9         -1.2730    2.9590    2.0640 n         1 MOL     -0.532078
     94 C29        -0.5890    1.9580    2.8170 c3        1 MOL      0.066497
     95 C30        -0.8220    0.5460    2.4040 c         1 MOL      0.294435
     96 O16        -0.5130    0.2250    1.2510 o         1 MOL     -0.298773
     97 C31         0.8840    2.3530    3.1120 c3        1 MOL      0.011740
     98 C32         1.0610    3.7510    3.7000 c3        1 MOL     -0.129159
     99 C33         1.6250    1.3440    4.0090 c3        1 MOL     -0.561491
    100 C34         0.2350    4.1850    4.9100 c3        1 MOL     -0.535483
    101 H42        -0.6710    3.5070    1.4660 hn        1 MOL      0.469284
    102 H43        -1.0820    1.9440    3.7830 h1        1 MOL      0.087544
    103 H44         1.4490    2.3640    2.1830 hc        1 MOL      0.032739
    104 H45         0.8410    4.4590    2.8960 hc        1 MOL      0.095901
    105 H46         2.0520    3.8840    4.1170 hc        1 MOL      0.095901
    106 H47         1.4460    0.3980    3.4960 hc        1 MOL      0.167406
    107 H48         2.6800    1.6540    3.9650 hc        1 MOL      0.167406
    108 H49         1.2510    1.3790    5.0280 hc        1 MOL      0.167406
    109 H50         0.6520    3.6440    5.7610 hc        1 MOL      0.151648
    110 H51         0.5280    5.2260    5.0690 hc        1 MOL      0.151648
    111 H52        -0.8400    3.9850    4.8500 hc        1 MOL      0.151648
    112 N10        -1.5000   -0.3380    3.2040 n         1 MOL     -0.109475
    113 C35        -1.8640   -1.7080    2.8280 c3        1 MOL     -0.385654
    114 C36        -3.3600   -1.9380    2.6430 c         1 MOL      0.594353
    115 O17        -3.7900   -3.0690    2.5520 o         1 MOL     -0.604539
    116 C37        -1.2250   -2.6780    3.8180 c3        1 MOL      0.411171
    117 C38        -1.5130   -2.3560    5.3040 c3        1 MOL     -0.321504
    118 O18         0.1630   -2.7300    3.7730 oh        1 MOL     -0.592569
    119 H53        -1.7950   -0.0160    4.1120 hn        1 MOL      0.191207
    120 H54        -1.4380   -1.8390    1.8370 h1        1 MOL      0.316156
    121 H55        -1.4940   -3.7280    3.7060 h1        1 MOL      0.023806
    122 H56         0.3970   -3.0530    2.8970 ho        1 MOL      0.296940
    123 H57        -2.5890   -2.3280    5.4920 hc        1 MOL      0.070556
    124 H58        -1.0040   -3.1000    5.9260 hc        1 MOL      0.070556
    125 H59        -1.1310   -1.3740    5.5760 hc        1 MOL      0.070556
    126 N11        -4.1680   -0.9040    2.8370 n         1 MOL     -0.244356
    127 C39        -5.6500   -0.9940    2.6020 c3        1 MOL      0.014690
    128 C40        -5.9230   -1.3360    1.1270 c         1 MOL      0.350607
    129 O19        -5.4420   -0.6480    0.2220 o         1 MOL     -0.399780
    130 C41        -6.4240    0.3320    2.9280 c3        1 MOL      0.327795
    131 C42        -7.8720    0.0670    3.3980 c3        1 MOL     -0.326575
    132 O20        -5.7890    0.8080    4.1140 oh        1 MOL     -0.636564
    133 H60        -3.7780    0.0150    2.9240 hn        1 MOL      0.189818
    134 H61        -5.9720   -1.7750    3.2840 h1        1 MOL      0.090185
    135 H62        -6.3890    1.0830    2.1270 h1        1 MOL      0.037208
    136 H63        -6.1590    1.6600    4.3430 ho        1 MOL      0.412900
    137 H64        -7.9270   -0.8340    4.0070 hc        1 MOL      0.079796
    138 H65        -8.1260    0.9230    4.0260 hc        1 MOL      0.079796
    139 H66        -8.5780   -0.0570    2.5700 hc        1 MOL      0.079796
    140 N12        -6.6870   -2.4270    0.8710 n         1 MOL     -0.465480
    141 C43        -7.2190   -2.9250   -0.3620 c3        1 MOL      0.169565
    142 C44        -6.1210   -2.8570   -1.4440 c         1 MOL      0.441983
    143 O21        -6.3010   -2.2510   -2.5560 o         1 MOL     -0.474345
    144 C45        -8.5000   -2.2460   -0.8070 c3        1 MOL     -0.083786
    145 C46        -9.3520   -3.1080   -1.7340 c3        1 MOL      0.094827
    146 C47       -10.7470   -2.4290   -2.0930 c3        1 MOL     -0.074595
    147 C48       -10.5990   -1.1040   -2.9270 c3        1 MOL      0.129648
    148 N13       -11.8000   -0.7110   -3.8180 n4        1 MOL     -0.329861
    149 H67        -7.1290   -2.8750    1.6620 hn        1 MOL      0.272854
    150 H68        -7.5220   -3.9730   -0.3310 h1        1 MOL      0.038656
    151 H69        -8.4170   -1.3290   -1.3960 hc        1 MOL      0.014247
    152 H70        -9.1480   -2.2210    0.0630 hc        1 MOL      0.014247
    153 H71        -9.5810   -4.0970   -1.3440 hc        1 MOL      0.013075
    154 H72        -8.8370   -3.3260   -2.6690 hc        1 MOL      0.013075
    155 H73       -11.2110   -2.1000   -1.1600 hc        1 MOL      0.016889
    156 H74       -11.3610   -3.1780   -2.5860 hc        1 MOL      0.016889
    157 H75        -9.7470   -1.1880   -3.6000 hx        1 MOL      0.066733
    158 H76       -10.3700   -0.3250   -2.2030 hx        1 MOL      0.066733
    159 H77       -12.4590   -0.2520   -3.2130 hn        1 MOL      0.263302
    160 H78       -11.5180   -0.0860   -4.5650 hn        1 MOL      0.263302
    161 H79       -12.2600   -1.5360   -4.1930 hn        1 MOL      0.263302
    162 N14        -4.9660   -3.4410   -1.0340 n         1 MOL     -0.558351
    163 C49        -3.7170   -2.9160   -1.6390 c3        1 MOL      0.102655
    164 C50        -2.5330   -2.7740   -0.6800 c         1 MOL      0.543676
    165 O22        -2.0200   -1.6520   -0.4700 o         1 MOL     -0.727783
    166 C51        -3.4000   -3.7990   -2.8760 c3        1 MOL     -0.343275
    167 C52        -2.1610   -3.3920   -3.6980 c3        1 MOL      0.080071
    168 C53        -2.0980   -1.9030   -4.0420 c         1 MOL      0.703230
    169 O23        -2.5300   -1.4250   -5.1480 o         1 MOL     -0.651730
    170 O24        -1.5630   -1.1250   -3.2320 o         1 MOL     -0.651730
    171 H80        -4.9370   -3.8220   -0.1070 hn        1 MOL      0.338303
    172 H81        -3.9090   -1.8790   -1.9330 h1        1 MOL      0.128770
    173 H82        -4.2510   -3.8660   -3.5550 hc        1 MOL      0.103226
    174 H83        -3.2030   -4.8270   -2.5800 hc        1 MOL      0.103226
    175 H84        -2.0360   -4.0420   -4.5530 hc        1 MOL     -0.016240
    176 H85        -1.3350   -3.5260   -3.0020 hc        1 MOL     -0.016240
    177 N15        -1.9930   -3.7980   -0.0620 n         1 MOL     -0.131225
    178 C54        -2.1300   -5.2980   -0.0850 c3        1 MOL     -0.180461
    179 H86        -1.1990   -5.7520    0.2560 h1        1 MOL      0.086738
    180 H87        -2.9440   -5.6000    0.5750 h1        1 MOL      0.086738
    181 H88        -2.3450   -5.6280   -1.1010 h1        1 MOL      0.086738
    182 H89        -1.1700   -3.5640    0.4670 hn        1 MOL      0.137041
    183 Ca1        -0.0510   -0.1710   -1.4550 Ca        1 MOL      1.659351
    184 O25         1.2090   -1.7760   -3.5360 oh        1 MOL     -0.916233
    185 H90         1.3950   -2.6160   -3.9680 ho        1 MOL      0.435402
    186 H91         1.9160   -1.1940   -3.8200 ho        1 MOL      0.435402
    187 O26        -2.1860    1.2420   -0.6800 oh        1 MOL     -0.916233
    188 H92        -3.0090    0.9350   -0.3230 ho        1 MOL      0.435402
    189 H93        -2.3450    2.1470   -0.9410 ho        1 MOL      0.435402
@<TRIPOS>BOND
     1    1    2 1   
     2    1    4 1   
     3    1    5 1   
     4    1    6 1   
     5    2    3 2   
     6    2    7 1   
     7    7    8 1   
     8    7   15 1   
     9    8    9 1   
    10    8   11 1   
    11    8   16 1   
    12    9   10 2   
    13    9   19 1   
    14   11   12 1   
    15   11   17 1   
    16   11   18 1   
    17   12   13 1   
    18   12   14 1   
    19   19   20 1   
    20   19   28 1   
    21   20   21 1   
    22   20   23 1   
    23   20   29 1   
    24   21   22 2   
    25   21   41 1   
    26   23   24 1   
    27   23   30 1   
    28   23   31 1   
    29   24   25 1   
    30   24   32 1   
    31   24   33 1   
    32   25   26 1   
    33   25   34 1   
    34   25   35 1   
    35   26   27 1   
    36   26   36 1   
    37   26   37 1   
    38   27   38 1   
    39   27   39 1   
    40   27   40 1   
    41   41   42 1   
    42   41   49 1   
    43   42   43 1   
    44   42   45 1   
    45   42   50 1   
    46   43   44 2   
    47   43   53 1   
    48   45   46 1   
    49   45   51 1   
    50   45   52 1   
    51   46   47 1   
    52   46   48 1   
    53   53   54 1   
    54   53   57 1   
    55   54   55 1   
    56   54   58 1   
    57   54   59 1   
    58   55   56 2   
    59   55   60 1   
    60   60   61 1   
    61   60   68 1   
    62   61   62 1   
    63   61   64 1   
    64   61   69 1   
    65   62   63 2   
    66   62   72 1   
    67   64   65 1   
    68   64   70 1   
    69   64   71 1   
    70   65   66 1   
    71   65   67 1   
    72   72   73 1   
    73   72   76 1   
    74   73   74 1   
    75   73   77 1   
    76   73   78 1   
    77   74   75 2   
    78   74   79 1   
    79   79   80 1   
    80   79   86 1   
    81   80   81 1   
    82   80   83 1   
    83   80   87 1   
    84   81   82 2   
    85   81   93 1   
    86   83   84 1   
    87   83   85 1   
    88   83   88 1   
    89   84   90 1   
    90   84   91 1   
    91   84   92 1   
    92   85   89 1   
    93   93   94 1   
    94   93  101 1   
    95   94   95 1   
    96   94   97 1   
    97   94  102 1   
    98   95   96 2   
    99   95  112 1   
   100   97   98 1   
   101   97   99 1   
   102   97  103 1   
   103   98  100 1   
   104   98  104 1   
   105   98  105 1   
   106   99  106 1   
   107   99  107 1   
   108   99  108 1   
   109  100  109 1   
   110  100  110 1   
   111  100  111 1   
   112  112  113 1   
   113  112  119 1   
   114  113  114 1   
   115  113  116 1   
   116  113  120 1   
   117  114  115 2   
   118  114  126 1   
   119  116  117 1   
   120  116  118 1   
   121  116  121 1   
   122  117  123 1   
   123  117  124 1   
   124  117  125 1   
   125  118  122 1   
   126  126  127 1   
   127  126  133 1   
   128  127  128 1   
   129  127  130 1   
   130  127  134 1   
   131  128  129 2   
   132  128  140 1   
   133  130  131 1   
   134  130  132 1   
   135  130  135 1   
   136  131  137 1   
   137  131  138 1   
   138  131  139 1   
   139  132  136 1   
   140  140  141 1   
   141  140  149 1   
   142  141  142 1   
   143  141  144 1   
   144  141  150 1   
   145  142  143 2   
   146  142  162 1   
   147  144  145 1   
   148  144  151 1   
   149  144  152 1   
   150  145  146 1   
   151  145  153 1   
   152  145  154 1   
   153  146  147 1   
   154  146  155 1   
   155  146  156 1   
   156  147  148 1   
   157  147  157 1   
   158  147  158 1   
   159  148  159 1   
   160  148  160 1   
   161  148  161 1   
   162  162  163 1   
   163  162  171 1   
   164  163  164 1   
   165  163  166 1   
   166  163  172 1   
   167  164  165 2   
   168  164  177 1   
   169  166  167 1   
   170  166  173 1   
   171  166  174 1   
   172  167  168 1   
   173  167  175 1   
   174  167  176 1   
   175  168  169 1   
   176  168  170 1   
   177  177  178 1   
   178  177  182 1   
   179  178  179 1   
   180  178  180 1   
   181  178  181 1   
   182  184  185 1   
   183  184  186 1   
   184  187  188 1   
   185  187  189 1   
@<TRIPOS>SUBSTRUCTURE
     1 MOL         1 TEMP              0 ****  ****    0 ROOT
