@<TRIPOS>MOLECULE
MOL
  178   175     1     0     0
SMALL
resp


@<TRIPOS>ATOM
      1 C1          4.9630   -1.2410    2.9510 c3        1 MOL     -0.592227
      2 C2          6.2110   -0.4450    2.5440 c         1 MOL      0.820963
      3 O1          6.0390    0.5770    1.9620 o         1 MOL     -0.628654
      4 H1          5.2650   -2.1550    3.4620 hc        1 MOL      0.155681
      5 H2          4.3490   -0.6370    3.6200 hc        1 MOL      0.155681
      6 H3          4.3880   -1.4960    2.0620 hc        1 MOL      0.155681
      7 N1          7.3960   -0.9050    2.8280 n         1 MOL     -0.604165
      8 C3          8.7150   -0.2850    2.7040 c3        1 MOL      0.232844
      9 C4          8.9920   -0.2840    1.2180 c         1 MOL      0.558848
     10 O2          9.0140   -1.3540    0.6320 o         1 MOL     -0.590393
     11 C5          9.7850   -1.0990    3.4090 c3        1 MOL     -0.187529
     12 C6         11.0320   -0.3170    3.5730 c         1 MOL      0.667389
     13 O3         11.3830    0.5650    2.7300 o         1 MOL     -0.721885
     14 O4         11.8110   -0.7040    4.5190 o         1 MOL     -0.721885
     15 H4          7.4040   -1.8660    3.1590 hn        1 MOL      0.294338
     16 H5          8.7660    0.7010    3.1610 h1        1 MOL      0.000493
     17 H6         10.0130   -2.0210    2.8710 hc        1 MOL      0.032124
     18 H7          9.3910   -1.4590    4.3640 hc        1 MOL      0.032124
     19 N2          9.0490    0.8930    0.5480 n         1 MOL     -0.396290
     20 C7          9.0480    1.0400   -0.9310 c3        1 MOL      0.205223
     21 C8          7.7020    0.5710   -1.6200 c         1 MOL      0.283862
     22 O5          7.6400    0.6910   -2.8270 o         1 MOL     -0.517544
     23 C9          9.2100    2.5660   -1.1760 c3        1 MOL     -0.248331
     24 H8          9.2810    1.7260    1.0630 hn        1 MOL      0.237747
     25 H9          9.9750    0.5860   -1.2900 h1        1 MOL      0.063470
     26 H10         8.3060    2.9840   -0.7480 hc        1 MOL      0.064803
     27 H11        10.0650    2.9100   -0.6010 hc        1 MOL      0.064803
     28 H12         9.3530    2.7350   -2.2410 hc        1 MOL      0.064803
     29 N3          6.6150    0.1430   -0.9190 n         1 MOL     -0.094819
     30 C10         5.4340   -0.5250   -1.5400 c3        1 MOL      0.274795
     31 C11         4.8700    0.1800   -2.8720 c         1 MOL      0.470978
     32 O6          4.5060   -0.4930   -3.8300 o         1 MOL     -0.498206
     33 C12         5.7430   -1.9910   -1.7460 c3        1 MOL     -0.293884
     34 C13         4.3760   -2.8210   -2.0100 c         1 MOL      0.816904
     35 O7          4.4480   -3.9950   -2.3600 o         1 MOL     -0.776420
     36 O8          3.2970   -2.2830   -1.7880 o         1 MOL     -0.776420
     37 H13         6.6800    0.2890    0.0820 hn        1 MOL      0.064724
     38 H14         4.7030   -0.4010   -0.7360 h1        1 MOL     -0.030011
     39 H15         6.2210   -2.4000   -0.8550 hc        1 MOL      0.061985
     40 H16         6.3680   -2.0460   -2.6390 hc        1 MOL      0.061985
     41 N4          4.7540    1.5050   -2.8770 n         1 MOL     -0.402841
     42 C14         4.1620    2.3570   -3.9710 c3        1 MOL      0.112462
     43 C15         2.7650    2.8980   -3.7620 c         1 MOL      0.577859
     44 O9          2.5840    4.0400   -4.2540 o         1 MOL     -0.616111
     45 H17         5.0340    2.0430   -2.0710 hn        1 MOL      0.235189
     46 H18         4.0510    1.7630   -4.8810 h1        1 MOL      0.030524
     47 H19         4.8610    3.1730   -4.1630 h1        1 MOL      0.030524
     48 N5          1.7730    2.2350   -3.2040 n         1 MOL     -0.433991
     49 C16         0.4090    2.7770   -3.2350 c3        1 MOL      0.020643
     50 C17         0.2560    4.1170   -2.3970 c         1 MOL      0.542902
     51 O10         0.7320    4.2720   -1.2890 o         1 MOL     -0.521564
     52 C18        -0.5510    1.6550   -2.6710 c3        1 MOL     -0.337351
     53 C19        -1.9370    2.2310   -2.6740 c         1 MOL      0.471041
     54 N6         -2.4790    2.5890   -3.8430 n         1 MOL     -0.730858
     55 O11        -2.5340    2.4960   -1.6650 o         1 MOL     -0.388177
     56 H20         1.9250    1.4680   -2.5640 hn        1 MOL      0.291644
     57 H21         0.1860    3.0160   -4.2810 h1        1 MOL      0.058167
     58 H22        -0.2330    1.5230   -1.6340 hc        1 MOL      0.172140
     59 H23        -0.3790    0.7680   -3.2750 hc        1 MOL      0.172140
     60 H24        -1.9420    2.4230   -4.6820 hn        1 MOL      0.349207
     61 H25        -3.4110    2.9630   -3.8050 hn        1 MOL      0.349207
     62 N7         -0.5520    5.0310   -2.8960 n         1 MOL     -0.323823
     63 C20        -0.8310    6.2990   -2.2280 c3        1 MOL      0.019569
     64 C21        -2.0140    6.2540   -1.2900 c         1 MOL      0.510422
     65 O12        -3.0840    5.8140   -1.7380 o         1 MOL     -0.525772
     66 H26        -0.9210    4.7770   -3.8090 hn        1 MOL      0.225143
     67 H27        -0.9820    7.1540   -2.9050 h1        1 MOL      0.052495
     68 H28         0.0320    6.7230   -1.7180 h1        1 MOL      0.052495
     69 N8         -1.8340    6.6240   -0.0290 n         1 MOL     -0.350232
     70 C22        -2.9140    6.7840    0.9160 c3        1 MOL     -0.308873
     71 C23        -3.1930    5.4810    1.7090 c         1 MOL      0.427228
     72 O13        -4.2290    5.2900    2.3400 o         1 MOL     -0.545194
     73 C24        -2.6190    7.8720    1.9480 c3        1 MOL      0.461368
     74 C25        -1.4430    7.5550    2.8190 c3        1 MOL     -0.430583
     75 O14        -2.3640    9.1150    1.2850 oh        1 MOL     -0.630057
     76 H29        -0.9380    6.9250    0.3120 hn        1 MOL      0.253573
     77 H30        -3.7900    7.0550    0.3240 h1        1 MOL      0.198005
     78 H31        -3.4840    8.0960    2.5720 h1        1 MOL      0.049191
     79 H32        -1.4180    9.1480    1.1180 ho        1 MOL      0.366735
     80 H33        -1.7490    6.7470    3.4790 hc        1 MOL      0.112111
     81 H34        -0.5250    7.2350    2.3220 hc        1 MOL      0.112111
     82 H35        -1.2640    8.4040    3.4770 hc        1 MOL      0.112111
     83 N9         -2.2790    4.4670    1.7610 n         1 MOL     -0.092041
     84 C26        -2.4830    3.0990    2.3660 c3        1 MOL      0.043681
     85 C27        -1.7670    2.1190    1.5030 c         1 MOL      0.322817
     86 O15        -0.8420    2.4410    0.8160 o         1 MOL     -0.424298
     87 C28        -2.2410    3.0660    3.8910 c3        1 MOL      0.011979
     88 C29        -0.8350    3.4740    4.3440 c3        1 MOL      0.102178
     89 C30        -3.1600    3.8760    4.8520 c3        1 MOL     -0.311444
     90 C31         0.2640    2.5170    3.8560 c3        1 MOL     -0.112460
     91 H36        -1.4570    4.5000    1.1670 hn        1 MOL      0.161240
     92 H37        -3.5490    2.8990    2.2330 h1        1 MOL      0.078531
     93 H38        -2.4830    2.0450    4.2120 hc        1 MOL      0.052410
     94 H39        -0.8090    3.4050    5.4310 hc        1 MOL     -0.028984
     95 H40        -0.5620    4.5030    4.1030 hc        1 MOL     -0.028984
     96 H41        -3.0500    3.6890    5.9200 hc        1 MOL      0.077871
     97 H42        -2.9670    4.9410    4.7520 hc        1 MOL      0.077871
     98 H43        -4.1930    3.7590    4.5090 hc        1 MOL      0.077871
     99 H44        -0.1170    1.4940    3.8660 hc        1 MOL      0.033350
    100 H45         0.4930    2.9140    2.8720 hc        1 MOL      0.033350
    101 H46         1.1420    2.6420    4.4910 hc        1 MOL      0.033350
    102 N10        -2.0600    0.7930    1.5380 n         1 MOL     -0.316499
    103 C32        -1.6690   -0.2770    0.5700 c3        1 MOL      0.118396
    104 C33        -2.8740   -0.8860   -0.0640 c         1 MOL      0.428933
    105 O16        -3.0440   -2.0920   -0.1840 o         1 MOL     -0.589728
    106 C34        -0.7690   -1.3270    1.2180 c3        1 MOL     -0.004847
    107 C35         0.0920   -2.2260    0.3020 c         1 MOL      0.816675
    108 O17         0.9830   -2.8600    0.7280 o         1 MOL     -0.772828
    109 O18        -0.0380   -2.1990   -0.9370 o         1 MOL     -0.772828
    110 H47        -2.6510    0.4620    2.2870 hn        1 MOL      0.188816
    111 H48        -1.1500    0.2340   -0.2490 h1        1 MOL      0.002913
    112 H49        -1.3410   -1.9700    1.8940 hc        1 MOL     -0.008972
    113 H50        -0.0930   -0.8430    1.9230 hc        1 MOL     -0.008972
    114 N11        -3.8590   -0.0780   -0.3280 n         1 MOL     -0.124031
    115 C36        -5.1870   -0.4480   -0.6880 c3        1 MOL      0.148975
    116 C37        -5.8070   -1.5770    0.1950 c         1 MOL      0.268752
    117 O19        -5.9190   -1.3310    1.3910 o         1 MOL     -0.520059
    118 C38        -6.1170    0.8190   -0.6910 c3        1 MOL     -0.348162
    119 C39        -7.6450    0.7300   -0.9480 ca        1 MOL      0.220832
    120 C40        -8.0980    1.0020   -2.2300 ca        1 MOL     -0.230004
    121 C41        -8.5850    0.3680    0.0260 ca        1 MOL     -0.230004
    122 C42        -9.4630    0.8590   -2.4960 ca        1 MOL     -0.058132
    123 C43        -9.9130    0.2270   -0.2200 ca        1 MOL     -0.058132
    124 C44       -10.3870    0.4250   -1.5290 ca        1 MOL     -0.161512
    125 H51        -3.6860    0.9110   -0.2170 hn        1 MOL      0.101002
    126 H52        -5.1480   -0.8640   -1.6900 h1        1 MOL     -0.004492
    127 H53        -5.7460    1.4180   -1.5190 hc        1 MOL      0.125569
    128 H54        -6.0010    1.4320    0.2150 hc        1 MOL      0.125569
    129 H55        -7.4280    1.3690   -2.9920 ha        1 MOL      0.138166
    130 H56        -8.1760    0.2520    1.0270 ha        1 MOL      0.138166
    131 H57        -9.8330    1.1040   -3.4830 ha        1 MOL      0.092192
    132 H58       -10.6130   -0.0310    0.5550 ha        1 MOL      0.092192
    133 H59       -11.4390    0.3870   -1.7820 ha        1 MOL      0.106582
    134 N12        -6.2980   -2.6470   -0.4080 n         1 MOL      0.097536
    135 C45        -6.9930   -3.6150    0.3670 c3        1 MOL     -0.006408
    136 C46        -6.0840   -4.5060    1.3130 c         1 MOL      0.162776
    137 O20        -6.5530   -5.1380    2.2880 o         1 MOL     -0.500737
    138 C47        -7.7600   -4.4300   -0.6570 c3        1 MOL     -0.144928
    139 C48        -6.9310   -4.3070   -1.9500 c3        1 MOL      0.002037
    140 C49        -6.2380   -2.9550   -1.8650 c3        1 MOL     -0.104350
    141 H60        -7.7660   -3.1820    1.0040 h1        1 MOL      0.093508
    142 H61        -7.8620   -5.4860   -0.4310 hc        1 MOL      0.065839
    143 H62        -8.7550   -3.9790   -0.7000 hc        1 MOL      0.065839
    144 H63        -6.1890   -5.0970   -2.0600 hc        1 MOL      0.019270
    145 H64        -7.5710   -4.3150   -2.8310 hc        1 MOL      0.019270
    146 H65        -5.2080   -3.0140   -2.2310 h1        1 MOL      0.056947
    147 H66        -6.8860   -2.3220   -2.4780 h1        1 MOL      0.056947
    148 N13        -4.8240   -4.4160    1.0860 n         1 MOL      0.127306
    149 C50        -3.8490   -4.9750    2.0240 c3        1 MOL     -0.279589
    150 C51        -3.7670   -4.2260    3.3520 c         1 MOL      0.409636
    151 O21        -3.3610   -4.7590    4.4020 o         1 MOL     -0.544559
    152 C52        -2.3790   -5.2360    1.5360 c3        1 MOL      0.202133
    153 C53        -2.2100   -6.0150    0.2450 c3        1 MOL     -0.305076
    154 C54        -0.8440   -5.8190   -0.4690 c         1 MOL      0.834293
    155 O22        -0.7240   -5.4590   -1.6830 o         1 MOL     -0.794792
    156 O23         0.2210   -6.1330    0.1070 o         1 MOL     -0.794792
    157 H67        -4.5090   -3.7730    0.3710 hn        1 MOL      0.186840
    158 H68        -4.1650   -5.9950    2.2410 h1        1 MOL      0.122286
    159 H69        -1.7800   -5.6860    2.3180 hc        1 MOL      0.014059
    160 H70        -1.9950   -4.2350    1.3300 hc        1 MOL      0.014059
    161 H71        -3.0750   -5.7760   -0.3780 hc        1 MOL      0.038717
    162 H72        -2.4270   -7.0720    0.3900 hc        1 MOL      0.038717
    163 N14        -4.0710   -2.9610    3.3830 n         1 MOL     -0.033116
    164 C55        -3.8790   -2.1660    4.6390 c3        1 MOL     -0.314945
    165 H73        -4.0430   -1.1100    4.4270 h1        1 MOL      0.112320
    166 H74        -4.5920   -2.5000    5.3930 h1        1 MOL      0.112320
    167 H75        -2.8640   -2.3100    5.0080 h1        1 MOL      0.112320
    168 H76        -4.4650   -2.4950    2.5810 hn        1 MOL      0.156793
    169 Ca1         1.5500   -4.2720   -1.5100 Ca        1 MOL      1.745127
    170 O24         2.7330   -6.4240   -2.6710 oh        1 MOL     -0.813108
    171 H77         2.8000   -7.3700   -2.8220 ho        1 MOL      0.399758
    172 H78         3.6160   -6.0970   -2.8120 ho        1 MOL      0.399758
    173 O25         3.1880   -5.5910    0.1680 oh        1 MOL     -0.813108
    174 H79         3.2770   -6.5330    0.0210 ho        1 MOL      0.399758
    175 H80         4.0330   -5.3160    0.5150 ho        1 MOL      0.399758
    176 O26         1.4590   -3.4820   -4.1990 oh        1 MOL     -0.813108
    177 H81         1.6660   -4.0380   -4.9570 ho        1 MOL      0.399758
    178 H82         1.4080   -2.6000   -4.5600 ho        1 MOL      0.399758
@<TRIPOS>BOND
     1    1    2 1   
     2    1    4 1   
     3    1    5 1   
     4    1    6 1   
     5    2    3 2   
     6    2    7 1   
     7    7    8 1   
     8    7   15 1   
     9    8    9 1   
    10    8   11 1   
    11    8   16 1   
    12    9   10 2   
    13    9   19 1   
    14   11   12 1   
    15   11   17 1   
    16   11   18 1   
    17   12   13 1   
    18   12   14 1   
    19   19   20 1   
    20   19   24 1   
    21   20   21 1   
    22   20   23 1   
    23   20   25 1   
    24   21   22 2   
    25   21   29 1   
    26   23   26 1   
    27   23   27 1   
    28   23   28 1   
    29   29   30 1   
    30   29   37 1   
    31   30   31 1   
    32   30   33 1   
    33   30   38 1   
    34   31   32 2   
    35   31   41 1   
    36   33   34 1   
    37   33   39 1   
    38   33   40 1   
    39   34   35 1   
    40   34   36 1   
    41   41   42 1   
    42   41   45 1   
    43   42   43 1   
    44   42   46 1   
    45   42   47 1   
    46   43   44 2   
    47   43   48 1   
    48   48   49 1   
    49   48   56 1   
    50   49   50 1   
    51   49   52 1   
    52   49   57 1   
    53   50   51 2   
    54   50   62 1   
    55   52   53 1   
    56   52   58 1   
    57   52   59 1   
    58   53   54 1   
    59   53   55 2   
    60   54   60 1   
    61   54   61 1   
    62   62   63 1   
    63   62   66 1   
    64   63   64 1   
    65   63   67 1   
    66   63   68 1   
    67   64   65 2   
    68   64   69 1   
    69   69   70 1   
    70   69   76 1   
    71   70   71 1   
    72   70   73 1   
    73   70   77 1   
    74   71   72 2   
    75   71   83 1   
    76   73   74 1   
    77   73   75 1   
    78   73   78 1   
    79   74   80 1   
    80   74   81 1   
    81   74   82 1   
    82   75   79 1   
    83   83   84 1   
    84   83   91 1   
    85   84   85 1   
    86   84   87 1   
    87   84   92 1   
    88   85   86 2   
    89   85  102 1   
    90   87   88 1   
    91   87   89 1   
    92   87   93 1   
    93   88   90 1   
    94   88   94 1   
    95   88   95 1   
    96   89   96 1   
    97   89   97 1   
    98   89   98 1   
    99   90   99 1   
   100   90  100 1   
   101   90  101 1   
   102  102  103 1   
   103  102  110 1   
   104  103  104 1   
   105  103  106 1   
   106  103  111 1   
   107  104  105 2   
   108  104  114 1   
   109  106  107 1   
   110  106  112 1   
   111  106  113 1   
   112  107  108 1   
   113  107  109 1   
   114  114  115 1   
   115  114  125 1   
   116  115  116 1   
   117  115  118 1   
   118  115  126 1   
   119  116  117 2   
   120  116  134 1   
   121  118  119 1   
   122  118  127 1   
   123  118  128 1   
   124  119  120 ar  
   125  119  121 ar  
   126  120  122 ar  
   127  120  129 1   
   128  121  123 ar  
   129  121  130 1   
   130  122  124 ar  
   131  122  131 1   
   132  123  124 ar  
   133  123  132 1   
   134  124  133 1   
   135  134  135 1   
   136  134  140 1   
   137  135  136 1   
   138  135  138 1   
   139  135  141 1   
   140  136  137 2   
   141  136  148 1   
   142  138  139 1   
   143  138  142 1   
   144  138  143 1   
   145  139  140 1   
   146  139  144 1   
   147  139  145 1   
   148  140  146 1   
   149  140  147 1   
   150  148  149 1   
   151  148  157 1   
   152  149  150 1   
   153  149  152 1   
   154  149  158 1   
   155  150  151 2   
   156  150  163 1   
   157  152  153 1   
   158  152  159 1   
   159  152  160 1   
   160  153  154 1   
   161  153  161 1   
   162  153  162 1   
   163  154  155 1   
   164  154  156 1   
   165  163  164 1   
   166  163  168 1   
   167  164  165 1   
   168  164  166 1   
   169  164  167 1   
   170  170  171 1   
   171  170  172 1   
   172  173  174 1   
   173  173  175 1   
   174  176  177 1   
   175  176  178 1   
@<TRIPOS>SUBSTRUCTURE
     1 MOL         1 TEMP              0 ****  ****    0 ROOT
