@<TRIPOS>MOLECULE
MOL
  189   185     1     0     0
SMALL
resp


@<TRIPOS>ATOM
      1 C1          4.1450    4.3380   -3.3850 c3        1 MOL     -0.408226
      2 C2          4.9180    3.5410   -2.2550 c         1 MOL      0.753817
      3 O1          4.3700    3.2560   -1.1790 o         1 MOL     -0.574587
      4 H1          3.8780    3.6560   -4.1930 hc        1 MOL      0.097248
      5 H2          3.2390    4.7760   -2.9650 hc        1 MOL      0.097248
      6 H3          4.7850    5.1300   -3.7740 hc        1 MOL      0.097248
      7 N1          6.1050    3.0570   -2.6070 n         1 MOL     -0.667870
      8 C3          6.9000    2.0020   -1.9240 c3        1 MOL      0.315052
      9 C4          6.0270    0.7410   -1.7510 c         1 MOL      0.323280
     10 O2          5.4320    0.4430   -0.7300 o         1 MOL     -0.631092
     11 C5          7.7590    2.4460   -0.7210 c3        1 MOL     -0.020812
     12 C6          7.1780    3.4000    0.3480 c         1 MOL      0.687533
     13 O3          6.1100    3.0710    0.9410 o         1 MOL     -0.718460
     14 O4          7.7090    4.5280    0.4560 o         1 MOL     -0.718460
     15 H4          6.5980    3.5090   -3.3550 hn        1 MOL      0.312718
     16 H5          7.6320    1.7380   -2.6860 h1        1 MOL     -0.004707
     17 H6          8.5890    2.9660   -1.2040 hc        1 MOL     -0.018559
     18 H7          8.2610    1.6110   -0.2300 hc        1 MOL     -0.018559
     19 N2          5.9180   -0.0280   -2.8410 n         1 MOL     -0.472775
     20 C7          5.1960   -1.2920   -3.0760 c3        1 MOL      0.083357
     21 C8          5.7430   -2.5090   -2.3000 c         1 MOL      0.316450
     22 O5          5.9190   -3.5180   -3.0020 o         1 MOL     -0.511741
     23 C9          3.6700   -1.1730   -3.0230 c3        1 MOL      0.222222
     24 C10         2.8980   -2.3650   -3.7070 c3        1 MOL     -0.066565
     25 C11         2.9600    0.1060   -3.5290 c3        1 MOL     -0.206031
     26 C12         3.2260   -2.6110   -5.1940 c3        1 MOL     -0.304599
     27 H8          6.3600    0.3980   -3.6410 hn        1 MOL      0.275008
     28 H9          5.3700   -1.4710   -4.1420 h1        1 MOL      0.052543
     29 H10         3.4500   -1.3090   -1.9650 hc        1 MOL     -0.058388
     30 H11         1.8540   -2.1100   -3.5530 hc        1 MOL      0.071340
     31 H12         3.0710   -3.3440   -3.2600 hc        1 MOL      0.071340
     32 H13         1.9050    0.0830   -3.2690 hc        1 MOL      0.040878
     33 H14         3.2740    0.9550   -2.9230 hc        1 MOL      0.040878
     34 H15         3.1980    0.3940   -4.5570 hc        1 MOL      0.040878
     35 H16         2.7120   -1.8670   -5.8050 hc        1 MOL      0.059562
     36 H17         4.3030   -2.7380   -5.2770 hc        1 MOL      0.059562
     37 H18         2.7920   -3.5880   -5.4100 hc        1 MOL      0.059562
     38 N3          6.0510   -2.3710   -1.0300 n         1 MOL     -0.042374
     39 C13         6.8120   -3.3110   -0.2460 c3        1 MOL      0.047302
     40 C14         6.2150   -4.7770   -0.2650 c         1 MOL      0.458565
     41 O6          7.0260   -5.6850   -0.6530 o         1 MOL     -0.591360
     42 C15         6.9880   -2.7060    1.1510 c3        1 MOL     -0.256976
     43 C16         7.8020   -1.4620    1.1990 c         1 MOL      0.836838
     44 O7          7.6230   -0.6320    2.1350 o         1 MOL     -0.737127
     45 O8          8.8010   -1.4100    0.3940 o         1 MOL     -0.737127
     46 H19         5.7650   -1.5080   -0.6030 hn        1 MOL      0.231633
     47 H20         7.7860   -3.2970   -0.7300 h1        1 MOL      0.050398
     48 H21         7.4680   -3.4760    1.7480 hc        1 MOL      0.051741
     49 H22         6.0890   -2.5900    1.7650 hc        1 MOL      0.051741
     50 N4          4.9310   -5.1050   -0.2700 n         1 MOL     -0.501528
     51 C17         3.7970   -4.1880    0.1760 c3        1 MOL      0.372704
     52 C18         2.6790   -4.9770    0.8490 c         1 MOL      0.331123
     53 O9          2.3670   -6.1040    0.2870 o         1 MOL     -0.575526
     54 H23         4.6990   -6.0780   -0.4340 hn        1 MOL      0.289996
     55 H24         3.3940   -3.7370   -0.7330 h1        1 MOL     -0.011316
     56 H25         4.1900   -3.4300    0.8470 h1        1 MOL     -0.011316
     57 N5          1.9550   -4.4120    1.7770 n         1 MOL     -0.413993
     58 C19         1.9860   -3.0470    2.4370 c3        1 MOL      0.271623
     59 C20         2.1640   -1.7830    1.5280 c         1 MOL      0.277709
     60 O10         3.3190   -1.3140    1.2640 o         1 MOL     -0.484114
     61 C21         3.0950   -3.0410    3.5090 c3        1 MOL     -0.442900
     62 C22         3.1980   -1.7160    4.2480 c         1 MOL      0.755963
     63 O11         2.1120   -1.0220    4.3830 o         1 MOL     -0.677435
     64 O12         4.2690   -1.3450    4.8030 o         1 MOL     -0.677435
     65 H26         1.1690   -4.9720    2.0680 hn        1 MOL      0.277888
     66 H27         1.0610   -2.8930    2.9870 h1        1 MOL      0.025237
     67 H28         4.0510   -3.2000    3.0060 hc        1 MOL      0.095524
     68 H29         2.7360   -3.8130    4.1920 hc        1 MOL      0.095524
     69 N6          1.0230   -1.2530    1.0210 n         1 MOL     -0.199598
     70 C23        -0.4040   -1.6190    1.2860 c3        1 MOL     -0.080156
     71 C24        -0.8910   -2.8580    0.5510 c         1 MOL      0.496476
     72 O13        -0.1090   -3.3820   -0.3160 o         1 MOL     -0.509105
     73 H30         1.1640   -0.4460    0.4440 hn        1 MOL      0.178972
     74 H31        -1.0870   -0.7910    1.1160 h1        1 MOL      0.078758
     75 H32        -0.5300   -1.7360    2.3640 h1        1 MOL      0.078758
     76 N7         -2.1540   -3.1330    0.6890 n         1 MOL     -0.406814
     77 C25        -2.8320   -4.2220   -0.0370 c3        1 MOL     -0.019092
     78 C26        -3.4630   -3.8740   -1.3970 c         1 MOL      0.433141
     79 O14        -3.5860   -4.7180   -2.2640 o         1 MOL     -0.536143
     80 C27        -3.7990   -4.9840    0.8520 c3        1 MOL     -0.043464
     81 C28        -4.9200   -4.1560    1.6020 c3        1 MOL     -0.371754
     82 C29        -5.9450   -3.6700    0.6340 c         1 MOL      0.612912
     83 N8         -6.7520   -4.5770    0.1410 n         1 MOL     -0.783862
     84 O15        -6.0730   -2.5060    0.3520 o         1 MOL     -0.500898
     85 H33        -2.7940   -2.5850    1.2370 hn        1 MOL      0.272769
     86 H34        -2.0520   -4.9390   -0.3230 h1        1 MOL      0.141813
     87 H35        -3.3270   -5.4290    1.7340 hc        1 MOL      0.041016
     88 H36        -4.2450   -5.8080    0.3060 hc        1 MOL      0.041016
     89 H37        -4.5250   -3.2430    2.0410 hc        1 MOL      0.151648
     90 H38        -5.4830   -4.8080    2.2690 hc        1 MOL      0.151648
     91 H39        -6.5650   -5.5500    0.3230 hn        1 MOL      0.380913
     92 H40        -7.2080   -4.2630   -0.6960 hn        1 MOL      0.380913
     93 N9         -3.9000   -2.6490   -1.5980 n         1 MOL     -0.244907
     94 C30        -4.2780   -2.0200   -2.9760 c3        1 MOL     -0.061019
     95 C31        -5.6130   -1.3030   -2.9930 c         1 MOL      0.439485
     96 O16        -6.0130   -0.9420   -4.0720 o         1 MOL     -0.546546
     97 C32        -3.1840   -0.9840   -3.3230 c3        1 MOL      0.040247
     98 C33        -1.7150   -1.4340   -3.1290 c3        1 MOL      0.002750
     99 C34        -3.2800    0.3640   -2.6090 c3        1 MOL      0.002750
    100 H41        -3.8130   -2.0130   -0.8240 hn        1 MOL      0.223337
    101 H42        -4.4000   -2.7590   -3.7650 h1        1 MOL      0.127336
    102 H43        -3.3840   -0.6640   -4.3450 hc        1 MOL      0.009472
    103 H44        -1.4500   -1.4500   -2.0680 hc        1 MOL      0.003025
    104 H45        -1.4890   -2.3530   -3.6740 hc        1 MOL      0.003025
    105 H46        -1.1060   -0.7190   -3.6760 hc        1 MOL      0.003025
    106 H47        -3.0980    0.1810   -1.5510 hc        1 MOL      0.003025
    107 H48        -2.5530    1.0380   -3.0610 hc        1 MOL      0.003025
    108 H49        -4.2390    0.8720   -2.7360 hc        1 MOL      0.003025
    109 N10        -6.3590   -0.8980   -1.9120 n         1 MOL     -0.166650
    110 C35        -7.6470   -0.1050   -1.9120 c3        1 MOL     -0.046406
    111 C36        -7.4710    1.1500   -1.0900 c         1 MOL      0.587475
    112 O17        -8.3030    2.0280   -1.0910 o         1 MOL     -0.566792
    113 C37        -8.7240   -0.9990   -1.2600 c3        1 MOL     -0.325821
    114 C38        -9.0010   -2.3480   -1.9100 c         1 MOL      0.656796
    115 N11        -9.1520   -2.3460   -3.2110 n         1 MOL     -0.749852
    116 O18        -9.1080   -3.3550   -1.2920 o         1 MOL     -0.557952
    117 H50        -6.0030   -1.2160   -1.0160 hn        1 MOL      0.102270
    118 H51        -8.0620    0.1170   -2.8830 h1        1 MOL      0.082700
    119 H52        -9.6620   -0.4620   -1.1490 hc        1 MOL      0.112915
    120 H53        -8.3330   -1.2070   -0.2590 hc        1 MOL      0.112915
    121 H54        -9.2710   -1.4410   -3.6450 hn        1 MOL      0.356063
    122 H55        -9.3460   -3.1910   -3.7280 hn        1 MOL      0.356063
    123 N12        -6.3100    1.3450   -0.4910 n         1 MOL     -0.426010
    124 C39        -6.0510    2.4910    0.2960 c3        1 MOL      0.139538
    125 C40        -4.5370    2.7950    0.5460 c         1 MOL      0.417711
    126 O19        -3.7080    1.9580    0.2600 o         1 MOL     -0.390876
    127 C41        -6.7560    2.3780    1.6180 c3        1 MOL     -0.154223
    128 C42        -6.2980    1.2380    2.6060 ca        1 MOL      0.149026
    129 C43        -5.2120    1.4810    3.5090 ca        1 MOL     -0.341444
    130 C44        -6.9130    0.0110    2.5390 ca        1 MOL     -0.341444
    131 C45        -4.7170    0.4290    4.3210 ca        1 MOL     -0.033959
    132 C46        -6.4390   -1.0220    3.4110 ca        1 MOL     -0.033959
    133 C47        -5.4390   -0.7680    4.3610 ca        1 MOL      0.150752
    134 O20        -4.9510   -1.7450    5.1840 oh        1 MOL     -0.591114
    135 H56        -5.6170    0.6260   -0.6180 hn        1 MOL      0.306530
    136 H57        -6.4840    3.3800   -0.1670 h1        1 MOL      0.039606
    137 H58        -7.8260    2.3030    1.4720 hc        1 MOL      0.059451
    138 H59        -6.6130    3.3220    2.1480 hc        1 MOL      0.059451
    139 H60        -4.8070    2.4630    3.6870 ha        1 MOL      0.169691
    140 H61        -7.8080   -0.0380    1.9280 ha        1 MOL      0.169691
    141 H62        -3.8710    0.5600    4.9770 ha        1 MOL      0.104144
    142 H63        -7.0150   -1.9390    3.4530 ha        1 MOL      0.104144
    143 H64        -4.3880   -1.4140    5.8920 ho        1 MOL      0.456697
    144 N13        -4.2470    3.9610    1.1460 n         1 MOL     -0.645410
    145 C48        -2.9590    4.5540    1.5640 c3        1 MOL      0.370423
    146 C49        -1.9470    5.0350    0.4830 c         1 MOL      0.109720
    147 O21        -1.3750    6.1710    0.5950 o         1 MOL     -0.486753
    148 C50        -2.2110    3.5860    2.4840 c3        1 MOL     -0.228448
    149 C51        -1.1850    4.1710    3.3510 c3        1 MOL     -0.430433
    150 C52        -0.7060    3.2020    4.4470 c         1 MOL      0.856496
    151 O22         0.0680    2.2190    4.2640 o         1 MOL     -0.734560
    152 O23        -1.0700    3.4690    5.5810 o         1 MOL     -0.734560
    153 H65        -5.0670    4.4920    1.3790 hn        1 MOL      0.320398
    154 H66        -3.2780    5.4550    2.1000 h1        1 MOL      0.030248
    155 H67        -1.7660    2.8580    1.8040 hc        1 MOL      0.121959
    156 H68        -2.9300    3.0960    3.1450 hc        1 MOL      0.121959
    157 H69        -1.7260    5.0030    3.8040 hc        1 MOL      0.100454
    158 H70        -0.4260    4.7440    2.8280 hc        1 MOL      0.100454
    159 N14        -1.7750    4.2440   -0.6100 n         1 MOL      0.021604
    160 C53        -0.6790    4.4330   -1.5720 c3        1 MOL     -0.026399
    161 C54        -1.0310    5.4540   -2.6960 c         1 MOL      0.420759
    162 O24        -0.1480    5.8810   -3.3850 o         1 MOL     -0.537070
    163 C55        -0.3420    3.1210   -2.1710 c3        1 MOL      0.054687
    164 C56        -0.0730    1.9530   -1.2130 c3        1 MOL      0.604977
    165 C57         1.2130    2.0220   -0.4080 c         1 MOL      0.484170
    166 O25         1.5370    2.9940    0.3240 o         1 MOL     -0.628250
    167 O26         1.9960    1.0460   -0.4210 o         1 MOL     -0.628250
    168 H71        -2.2660    3.3640   -0.5590 hn        1 MOL      0.051070
    169 H72         0.2160    4.8520   -1.1180 h1        1 MOL      0.127028
    170 H73         0.6190    3.1810   -2.6900 hc        1 MOL     -0.068946
    171 H74        -1.2200    2.8290   -2.7530 hc        1 MOL     -0.068946
    172 H75        -0.2190    1.0850   -1.8530 hc        1 MOL     -0.187320
    173 H76        -0.8550    1.8570   -0.4630 hc        1 MOL     -0.187320
    174 N15        -2.2530    5.8470   -2.8560 n         1 MOL     -0.182799
    175 C58        -2.7360    6.9040   -3.8010 c3        1 MOL     -0.175776
    176 H77        -3.2410    6.4320   -4.6440 h1        1 MOL      0.082711
    177 H78        -3.4320    7.5640   -3.2840 h1        1 MOL      0.082711
    178 H79        -1.8870    7.4830   -4.1640 h1        1 MOL      0.082711
    179 H80        -2.9320    5.3540   -2.3090 hn        1 MOL      0.164832
    180 Ca1         3.9840    1.7710    1.0200 Ca        1 MOL      1.784974
    181 O27         5.4480    0.4600    3.0600 oh        1 MOL     -0.908181
    182 H81         6.2660    0.0830    2.7280 ho        1 MOL      0.429353
    183 H82         5.1970   -0.1090    3.7890 ho        1 MOL      0.429353
    184 O28         3.3750    4.0620    2.3230 oh        1 MOL     -0.908181
    185 H83         3.0090    4.8170    1.8690 ho        1 MOL      0.429353
    186 H84         3.4880    4.3600    3.2270 ho        1 MOL      0.429353
    187 O29         2.2460    1.2780    3.1800 oh        1 MOL     -0.908181
    188 H85         2.1820    0.5260    3.7730 ho        1 MOL      0.429353
    189 H86         1.3760    1.6730    3.2010 ho        1 MOL      0.429353
@<TRIPOS>BOND
     1    1    2 1   
     2    1    4 1   
     3    1    5 1   
     4    1    6 1   
     5    2    3 2   
     6    2    7 1   
     7    7    8 1   
     8    7   15 1   
     9    8    9 1   
    10    8   11 1   
    11    8   16 1   
    12    9   10 2   
    13    9   19 1   
    14   11   12 1   
    15   11   17 1   
    16   11   18 1   
    17   12   13 1   
    18   12   14 1   
    19   19   20 1   
    20   19   27 1   
    21   20   21 1   
    22   20   23 1   
    23   20   28 1   
    24   21   22 2   
    25   21   38 1   
    26   23   24 1   
    27   23   25 1   
    28   23   29 1   
    29   24   26 1   
    30   24   30 1   
    31   24   31 1   
    32   25   32 1   
    33   25   33 1   
    34   25   34 1   
    35   26   35 1   
    36   26   36 1   
    37   26   37 1   
    38   38   39 1   
    39   38   46 1   
    40   39   40 1   
    41   39   42 1   
    42   39   47 1   
    43   40   41 2   
    44   40   50 1   
    45   42   43 1   
    46   42   48 1   
    47   42   49 1   
    48   43   44 1   
    49   43   45 1   
    50   50   51 1   
    51   50   54 1   
    52   51   52 1   
    53   51   55 1   
    54   51   56 1   
    55   52   53 2   
    56   52   57 1   
    57   57   58 1   
    58   57   65 1   
    59   58   59 1   
    60   58   61 1   
    61   58   66 1   
    62   59   60 2   
    63   59   69 1   
    64   61   62 1   
    65   61   67 1   
    66   61   68 1   
    67   62   63 1   
    68   62   64 1   
    69   69   70 1   
    70   69   73 1   
    71   70   71 1   
    72   70   74 1   
    73   70   75 1   
    74   71   72 2   
    75   71   76 1   
    76   76   77 1   
    77   76   85 1   
    78   77   78 1   
    79   77   80 1   
    80   77   86 1   
    81   78   79 2   
    82   78   93 1   
    83   80   81 1   
    84   80   87 1   
    85   80   88 1   
    86   81   82 1   
    87   81   89 1   
    88   81   90 1   
    89   82   83 1   
    90   82   84 2   
    91   83   91 1   
    92   83   92 1   
    93   93   94 1   
    94   93  100 1   
    95   94   95 1   
    96   94   97 1   
    97   94  101 1   
    98   95   96 2   
    99   95  109 1   
   100   97   98 1   
   101   97   99 1   
   102   97  102 1   
   103   98  103 1   
   104   98  104 1   
   105   98  105 1   
   106   99  106 1   
   107   99  107 1   
   108   99  108 1   
   109  109  110 1   
   110  109  117 1   
   111  110  111 1   
   112  110  113 1   
   113  110  118 1   
   114  111  112 2   
   115  111  123 1   
   116  113  114 1   
   117  113  119 1   
   118  113  120 1   
   119  114  115 1   
   120  114  116 2   
   121  115  121 1   
   122  115  122 1   
   123  123  124 1   
   124  123  135 1   
   125  124  125 1   
   126  124  127 1   
   127  124  136 1   
   128  125  126 2   
   129  125  144 1   
   130  127  128 1   
   131  127  137 1   
   132  127  138 1   
   133  128  129 ar  
   134  128  130 ar  
   135  129  131 ar  
   136  129  139 1   
   137  130  132 ar  
   138  130  140 1   
   139  131  133 ar  
   140  131  141 1   
   141  132  133 ar  
   142  132  142 1   
   143  133  134 1   
   144  134  143 1   
   145  144  145 1   
   146  144  153 1   
   147  145  146 1   
   148  145  148 1   
   149  145  154 1   
   150  146  147 2   
   151  146  159 1   
   152  148  149 1   
   153  148  155 1   
   154  148  156 1   
   155  149  150 1   
   156  149  157 1   
   157  149  158 1   
   158  150  151 1   
   159  150  152 1   
   160  159  160 1   
   161  159  168 1   
   162  160  161 1   
   163  160  163 1   
   164  160  169 1   
   165  161  162 2   
   166  161  174 1   
   167  163  164 1   
   168  163  170 1   
   169  163  171 1   
   170  164  165 1   
   171  164  172 1   
   172  164  173 1   
   173  165  166 1   
   174  165  167 1   
   175  174  175 1   
   176  174  179 1   
   177  175  176 1   
   178  175  177 1   
   179  175  178 1   
   180  181  182 1   
   181  181  183 1   
   182  184  185 1   
   183  184  186 1   
   184  187  188 1   
   185  187  189 1   
@<TRIPOS>SUBSTRUCTURE
     1 MOL         1 TEMP              0 ****  ****    0 ROOT
