@<TRIPOS>MOLECULE
MOL
  191   184     1     0     0
SMALL
resp


@<TRIPOS>ATOM
      1 C1          1.0200    1.7420    2.4840 c3        1 MOL     -0.411835
      2 C2          2.2530    1.7670    1.5190 c         1 MOL      0.669149
      3 O1          2.0700    1.9710    0.2750 o         1 MOL     -0.573438
      4 H1          0.5000    2.6990    2.4330 hc        1 MOL      0.113539
      5 H2          0.3410    0.9430    2.1860 hc        1 MOL      0.113539
      6 H3          1.3600    1.5690    3.5050 hc        1 MOL      0.113539
      7 N1          3.4400    1.4670    2.0210 n         1 MOL     -0.473689
      8 C3          4.6840    1.3310    1.2250 c3        1 MOL     -0.027124
      9 C4          5.4130    0.0100    1.3440 c         1 MOL      0.545519
     10 O2          6.4150   -0.1380    0.5920 o         1 MOL     -0.401153
     11 C5          5.5590    2.4950    1.5760 c3        1 MOL     -0.321146
     12 C6          6.4330    2.4330    2.8500 c         1 MOL      0.810105
     13 O3          5.9020    2.8150    3.9000 o         1 MOL     -0.743862
     14 O4          7.5900    2.0370    2.8160 o         1 MOL     -0.743862
     15 H4          3.4820    1.0590    2.9490 hn        1 MOL      0.253056
     16 H5          4.4840    1.3390    0.1540 h1        1 MOL      0.099750
     17 H6          4.8950    3.3580    1.5600 hc        1 MOL      0.117857
     18 H7          6.3160    2.5370    0.7930 hc        1 MOL      0.117857
     19 N2          4.9900   -0.8990    2.1900 n         1 MOL     -0.553034
     20 C7          5.7430   -2.1820    2.4860 c3        1 MOL      0.269009
     21 C8          6.1350   -2.9350    1.1850 c         1 MOL      0.456339
     22 O5          7.1950   -3.5330    1.1370 o         1 MOL     -0.513427
     23 C9          6.9420   -1.9400    3.5410 c3        1 MOL     -0.384014
     24 C10         6.5030   -0.9530    4.6950 c3        1 MOL      0.230446
     25 C11         7.5090   -0.9530    5.9260 c3        1 MOL      0.008100
     26 C12         7.0790    0.2610    6.7810 c3        1 MOL      0.089926
     27 N3          7.5650    1.5110    6.2430 n4        1 MOL     -0.373608
     28 H8          4.2900   -0.5340    2.8060 hn        1 MOL      0.306936
     29 H9          5.0250   -2.8670    2.9370 h1        1 MOL      0.045894
     30 H10         7.8620   -1.5910    3.0670 hc        1 MOL      0.111016
     31 H11         7.1990   -2.8900    3.9980 hc        1 MOL      0.111016
     32 H12         5.4710   -1.1950    4.9690 hc        1 MOL     -0.029628
     33 H13         6.4490    0.0780    4.3390 hc        1 MOL     -0.029628
     34 H14         8.5830   -0.8280    5.8190 hc        1 MOL      0.019653
     35 H15         7.2560   -1.9180    6.3730 hc        1 MOL      0.019653
     36 H16         7.6340    0.1180    7.7050 hx        1 MOL      0.021337
     37 H17         6.0040    0.1810    6.9250 hx        1 MOL      0.021337
     38 H18         8.5040    1.4180    5.8760 hn        1 MOL      0.324875
     39 H19         7.0200    1.7650    5.4340 hn        1 MOL      0.324875
     40 H20         7.4300    2.2370    6.9310 hn        1 MOL      0.324875
     41 N4          5.2460   -3.0400    0.1910 n         1 MOL     -0.377017
     42 C13         5.6080   -3.3170   -1.2050 c3        1 MOL      0.227464
     43 C14         5.1970   -2.1400   -2.1890 c         1 MOL      0.502266
     44 O6          4.4660   -2.3030   -3.1700 o         1 MOL     -0.569099
     45 C15         5.0290   -4.6560   -1.7190 c3        1 MOL     -0.328893
     46 C16         3.4950   -4.7340   -1.5890 c         1 MOL      0.731618
     47 O7          2.8100   -4.0120   -0.8500 o         1 MOL     -0.720343
     48 O8          2.9030   -5.5710   -2.2920 o         1 MOL     -0.720343
     49 H21         4.3240   -2.6720    0.3700 hn        1 MOL      0.215879
     50 H22         6.6760   -3.4640   -1.3460 h1        1 MOL      0.038384
     51 H23         5.3640   -5.4800   -1.0830 hc        1 MOL      0.090724
     52 H24         5.2800   -4.9120   -2.7500 hc        1 MOL      0.090724
     53 N5          5.5120   -0.9240   -1.7780 n         1 MOL     -0.303929
     54 C17         5.4440    0.2640   -2.6670 c3        1 MOL      0.049616
     55 C18         6.4220    1.3690   -2.2610 c         1 MOL      0.418888
     56 O9          7.5560    1.1360   -2.0230 o         1 MOL     -0.500173
     57 H25         6.0260   -0.9000   -0.9030 hn        1 MOL      0.139221
     58 H26         4.4090    0.6030   -2.6170 h1        1 MOL      0.040111
     59 H27         5.5560    0.0530   -3.7320 h1        1 MOL      0.040111
     60 N6          6.0700    2.6370   -2.2480 n         1 MOL     -0.379040
     61 C19         4.8160    3.2610   -2.5930 c3        1 MOL      0.250189
     62 C20         4.6160    4.3190   -1.4510 c         1 MOL      0.479073
     63 O10         5.4970    4.8720   -0.8510 o         1 MOL     -0.530325
     64 C21         4.9460    3.8790   -3.9530 c3        1 MOL     -0.338208
     65 C22         4.5440    2.9800   -5.1540 c         1 MOL      0.597291
     66 N7          5.3980    2.1850   -5.7870 n         1 MOL     -0.725760
     67 O11         3.3770    2.9990   -5.5930 o         1 MOL     -0.568224
     68 H28         6.7630    3.2960   -1.9250 hn        1 MOL      0.272471
     69 H29         3.9840    2.5620   -2.4800 h1        1 MOL      0.050440
     70 H30         5.9800    4.1130   -4.1920 hc        1 MOL      0.098073
     71 H31         4.3270    4.7650   -4.1390 hc        1 MOL      0.098073
     72 H32         6.3680    2.2940   -5.5140 hn        1 MOL      0.365480
     73 H33         4.9810    1.8750   -6.6480 hn        1 MOL      0.365480
     74 N8          3.3390    4.7410   -1.2980 n         1 MOL     -0.267947
     75 C23         2.1270    4.3510   -2.0110 c3        1 MOL     -0.483937
     76 C24         0.8870    5.0040   -1.3560 c         1 MOL      0.842062
     77 O12         0.8820    6.1900   -1.1340 o         1 MOL     -0.574754
     78 H34         3.2000    5.4250   -0.5600 hn        1 MOL      0.264559
     79 H35         1.8830    3.2970   -2.1000 h1        1 MOL      0.167089
     80 H36         2.1610    4.8100   -2.9990 h1        1 MOL      0.167089
     81 N9         -0.1090    4.1830   -1.0700 n         1 MOL     -0.618261
     82 C25        -1.3970    4.7120   -0.6540 c3        1 MOL      0.125415
     83 C26        -2.2100    3.6200    0.1690 c         1 MOL      0.676172
     84 O13        -1.9950    2.4220    0.1060 o         1 MOL     -0.517600
     85 C27        -2.2180    5.2040   -1.8520 c3        1 MOL     -0.171775
     86 C28        -3.3190    6.2220   -1.5410 ca        1 MOL      0.066138
     87 C29        -4.6410    5.9770   -2.0050 ca        1 MOL     -0.187648
     88 C30        -3.0300    7.2890   -0.6170 ca        1 MOL     -0.187648
     89 C31        -5.7030    6.8150   -1.5820 ca        1 MOL     -0.202067
     90 C32        -4.1140    8.0480   -0.1890 ca        1 MOL     -0.202067
     91 C33        -5.4160    7.8330   -0.6810 ca        1 MOL      0.262562
     92 O14        -6.4460    8.6060   -0.2070 oh        1 MOL     -0.462646
     93 H37         0.0200    3.1740   -1.0690 hn        1 MOL      0.289203
     94 H38        -1.2250    5.5360    0.0370 h1        1 MOL      0.017275
     95 H39        -2.7330    4.3190   -2.2190 hc        1 MOL      0.083721
     96 H40        -1.5970    5.6330   -2.6520 hc        1 MOL      0.083721
     97 H41        -4.8680    5.1550   -2.6670 ha        1 MOL      0.153769
     98 H42        -2.0630    7.5360   -0.2320 ha        1 MOL      0.153769
     99 H43        -6.7140    6.6460   -1.9090 ha        1 MOL      0.141791
    100 H44        -3.8970    8.8000    0.5540 ha        1 MOL      0.141791
    101 H45        -6.0700    9.2780    0.3630 ho        1 MOL      0.343752
    102 N10        -3.1820    4.1220    0.9380 n         1 MOL     -0.577103
    103 C34        -4.1690    3.3010    1.6890 c3        1 MOL     -0.092560
    104 C35        -5.0920    2.5310    0.7190 c         1 MOL      0.395075
    105 O15        -5.3510    3.0270   -0.4050 o         1 MOL     -0.455553
    106 C36        -4.8280    4.1700    2.6970 c3        1 MOL      0.203047
    107 C37        -5.5920    5.2540    1.9080 c3        1 MOL     -0.075346
    108 C38        -5.8270    3.3190    3.5510 c3        1 MOL     -0.434683
    109 C39        -6.5000    6.2280    2.7390 c3        1 MOL     -0.525525
    110 H46        -3.2480    5.1270    0.9020 hn        1 MOL      0.275078
    111 H47        -3.5440    2.6160    2.2680 h1        1 MOL      0.106740
    112 H48        -4.1430    4.6780    3.3700 hc        1 MOL      0.032482
    113 H49        -6.2790    4.8110    1.1880 hc        1 MOL      0.120200
    114 H50        -4.8090    5.8500    1.4580 hc        1 MOL      0.120200
    115 H51        -5.4360    2.3480    3.8420 hc        1 MOL      0.118644
    116 H52        -6.0580    3.9430    4.4100 hc        1 MOL      0.118644
    117 H53        -6.7370    3.1630    2.9650 hc        1 MOL      0.118644
    118 H54        -7.0300    6.9600    2.1390 hc        1 MOL      0.132923
    119 H55        -7.3150    5.6450    3.1800 hc        1 MOL      0.132923
    120 H56        -5.9830    6.6310    3.6090 hc        1 MOL      0.132923
    121 N11        -5.7840    1.4290    1.1080 n         1 MOL     -0.207797
    122 C40        -6.6160    0.6200    0.2240 c3        1 MOL     -0.027506
    123 C41        -5.8550   -0.4400   -0.5780 c         1 MOL      0.790341
    124 O16        -4.7890   -0.8690   -0.1820 o         1 MOL     -0.535193
    125 C42        -7.7650    0.0060    0.9310 c3        1 MOL      0.024530
    126 O17        -7.3920   -0.5370    2.1870 oh        1 MOL     -0.557847
    127 H57        -5.5510    1.0250    2.0130 hn        1 MOL      0.221627
    128 H58        -7.0120    1.3420   -0.4960 h1        1 MOL      0.037008
    129 H59        -8.1760   -0.7940    0.3110 h1        1 MOL      0.052894
    130 H60        -8.5540    0.7220    1.1390 h1        1 MOL      0.052894
    131 H61        -7.8440   -1.3940    2.2180 ho        1 MOL      0.406863
    132 N12        -6.2730   -0.6530   -1.8210 n         1 MOL     -0.728896
    133 C43        -5.5780   -1.6100   -2.6430 c3        1 MOL      0.481614
    134 C44        -5.6010   -3.1210   -2.0990 c         1 MOL      0.289766
    135 O18        -4.6270   -3.8630   -2.1920 o         1 MOL     -0.504482
    136 C45        -4.2850   -1.1160   -3.3290 c3        1 MOL     -0.428501
    137 H62        -7.2260   -0.4400   -2.0570 hn        1 MOL      0.328455
    138 H63        -6.3080   -1.7150   -3.4470 h1        1 MOL     -0.026155
    139 H64        -4.4760   -0.1060   -3.6720 hc        1 MOL      0.122019
    140 H65        -3.5190   -1.1250   -2.5540 hc        1 MOL      0.122019
    141 H66        -4.0340   -1.7640   -4.1600 hc        1 MOL      0.122019
    142 N13        -6.6580   -3.4210   -1.3900 n         1 MOL     -0.260674
    143 C46        -6.9260   -4.7260   -0.7070 c3        1 MOL      0.146385
    144 C47        -5.7900   -5.1000    0.2960 c         1 MOL      0.361948
    145 O19        -5.2560   -6.2750    0.3110 o         1 MOL     -0.481501
    146 C48        -7.3150   -5.7350   -1.7300 c3        1 MOL     -0.364220
    147 H67        -7.4380   -2.7950   -1.5150 hn        1 MOL      0.195112
    148 H68        -7.7980   -4.5770   -0.0660 h1        1 MOL      0.049774
    149 H69        -7.8210   -6.5890   -1.2920 hc        1 MOL      0.113486
    150 H70        -7.9800   -5.3700   -2.5150 hc        1 MOL      0.113486
    151 H71        -6.4080   -6.1060   -2.2090 hc        1 MOL      0.113486
    152 N14        -5.3130   -4.1240    1.0860 n         1 MOL     -0.152175
    153 C49        -4.1260   -4.2140    2.0010 c3        1 MOL     -0.439017
    154 C50        -4.5540   -4.1040    3.5250 c         1 MOL      0.631303
    155 O20        -4.0160   -4.8060    4.3640 o         1 MOL     -0.506991
    156 C51        -3.0490   -3.1710    1.6140 c3        1 MOL      0.392236
    157 C52        -1.6610   -3.2620    2.1730 c3        1 MOL     -0.250226
    158 C53        -0.9390   -4.4230    1.5940 c         1 MOL      0.742229
    159 O21         0.0070   -4.2170    0.8010 o         1 MOL     -0.708738
    160 O22        -1.3960   -5.6120    1.7630 o         1 MOL     -0.708738
    161 H72        -5.8260   -3.2600    1.0770 hn        1 MOL      0.072023
    162 H73        -3.6930   -5.2070    1.8460 h1        1 MOL      0.245491
    163 H74        -3.4540   -2.1690    1.7380 hc        1 MOL     -0.049158
    164 H75        -2.9030   -3.1500    0.5290 hc        1 MOL     -0.049158
    165 H76        -1.6350   -3.2880    3.2600 hc        1 MOL      0.027069
    166 H77        -1.1880   -2.3060    1.9590 hc        1 MOL      0.027069
    167 N15        -5.3570   -3.0950    3.8490 n         1 MOL     -0.367209
    168 C54        -6.0060   -3.0950    5.1910 c3        1 MOL     -0.234084
    169 H78        -7.0300   -3.4560    5.0990 h1        1 MOL      0.111182
    170 H79        -5.4510   -3.7490    5.8640 h1        1 MOL      0.111182
    171 H80        -6.0140   -2.0820    5.5920 h1        1 MOL      0.111182
    172 H81        -5.9310   -2.6980    3.1180 hn        1 MOL      0.236067
    173 Ca1         0.4480   -4.5260   -1.8290 Ca        1 MOL      1.682487
    174 O23        -2.2220   -5.0320   -1.3570 oh        1 MOL     -0.824133
    175 H82        -3.1360   -4.7970   -1.2220 ho        1 MOL      0.407297
    176 H83        -2.2570   -5.7410   -2.0010 ho        1 MOL      0.407297
    177 O24         0.2260   -6.2340   -3.9000 oh        1 MOL     -0.824133
    178 H84         0.2840   -6.1370   -4.8540 ho        1 MOL      0.407297
    179 H85         0.1700   -7.1790   -3.7550 ho        1 MOL      0.407297
    180 O25        -0.0890   -2.0620   -1.3580 oh        1 MOL     -0.824133
    181 H86        -0.9400   -1.6230   -1.2650 ho        1 MOL      0.407297
    182 H87         0.5540   -1.3520   -1.3220 ho        1 MOL      0.407297
    183 O26        -1.1560   -3.5450   -3.7420 oh        1 MOL     -0.824133
    184 H88        -2.1050   -3.4580   -3.6670 ho        1 MOL      0.407297
    185 H89        -0.9520   -3.2640   -4.6350 ho        1 MOL      0.407297
    186 O27        -0.1500   -6.8690   -0.8390 oh        1 MOL     -0.824133
    187 H90        -0.9420   -7.0440   -0.3230 ho        1 MOL      0.407297
    188 H91         0.1250   -7.7290   -1.1460 ho        1 MOL      0.407297
    189 O28         1.7400   -3.1740   -3.8720 oh        1 MOL     -0.824133
    190 H92         1.3440   -2.6510   -4.5690 ho        1 MOL      0.407297
    191 H93         2.5910   -2.7770   -3.7310 ho        1 MOL      0.407297
@<TRIPOS>BOND
     1    1    2 1   
     2    1    4 1   
     3    1    5 1   
     4    1    6 1   
     5    2    3 2   
     6    2    7 1   
     7    7    8 1   
     8    7   15 1   
     9    8    9 1   
    10    8   11 1   
    11    8   16 1   
    12    9   10 2   
    13    9   19 1   
    14   11   12 1   
    15   11   17 1   
    16   11   18 1   
    17   12   13 1   
    18   12   14 1   
    19   19   20 1   
    20   19   28 1   
    21   20   21 1   
    22   20   23 1   
    23   20   29 1   
    24   21   22 2   
    25   21   41 1   
    26   23   24 1   
    27   23   30 1   
    28   23   31 1   
    29   24   25 1   
    30   24   32 1   
    31   24   33 1   
    32   25   26 1   
    33   25   34 1   
    34   25   35 1   
    35   26   27 1   
    36   26   36 1   
    37   26   37 1   
    38   27   38 1   
    39   27   39 1   
    40   27   40 1   
    41   41   42 1   
    42   41   49 1   
    43   42   43 1   
    44   42   45 1   
    45   42   50 1   
    46   43   44 2   
    47   43   53 1   
    48   45   46 1   
    49   45   51 1   
    50   45   52 1   
    51   46   47 1   
    52   46   48 1   
    53   53   54 1   
    54   53   57 1   
    55   54   55 1   
    56   54   58 1   
    57   54   59 1   
    58   55   56 2   
    59   55   60 1   
    60   60   61 1   
    61   60   68 1   
    62   61   62 1   
    63   61   64 1   
    64   61   69 1   
    65   62   63 2   
    66   62   74 1   
    67   64   65 1   
    68   64   70 1   
    69   64   71 1   
    70   65   66 1   
    71   65   67 2   
    72   66   72 1   
    73   66   73 1   
    74   74   75 1   
    75   74   78 1   
    76   75   76 1   
    77   75   79 1   
    78   75   80 1   
    79   76   77 2   
    80   76   81 1   
    81   81   82 1   
    82   81   93 1   
    83   82   83 1   
    84   82   85 1   
    85   82   94 1   
    86   83   84 2   
    87   83  102 1   
    88   85   86 1   
    89   85   95 1   
    90   85   96 1   
    91   86   87 ar  
    92   86   88 ar  
    93   87   89 ar  
    94   87   97 1   
    95   88   90 ar  
    96   88   98 1   
    97   89   91 ar  
    98   89   99 1   
    99   90   91 ar  
   100   90  100 1   
   101   91   92 1   
   102   92  101 1   
   103  102  103 1   
   104  102  110 1   
   105  103  104 1   
   106  103  106 1   
   107  103  111 1   
   108  104  105 2   
   109  104  121 1   
   110  106  107 1   
   111  106  108 1   
   112  106  112 1   
   113  107  109 1   
   114  107  113 1   
   115  107  114 1   
   116  108  115 1   
   117  108  116 1   
   118  108  117 1   
   119  109  118 1   
   120  109  119 1   
   121  109  120 1   
   122  121  122 1   
   123  121  127 1   
   124  122  123 1   
   125  122  125 1   
   126  122  128 1   
   127  123  124 2   
   128  123  132 1   
   129  125  126 1   
   130  125  129 1   
   131  125  130 1   
   132  126  131 1   
   133  132  133 1   
   134  132  137 1   
   135  133  134 1   
   136  133  136 1   
   137  133  138 1   
   138  134  135 2   
   139  134  142 1   
   140  136  139 1   
   141  136  140 1   
   142  136  141 1   
   143  142  143 1   
   144  142  147 1   
   145  143  144 1   
   146  143  146 1   
   147  143  148 1   
   148  144  145 2   
   149  144  152 1   
   150  146  149 1   
   151  146  150 1   
   152  146  151 1   
   153  152  153 1   
   154  152  161 1   
   155  153  154 1   
   156  153  156 1   
   157  153  162 1   
   158  154  155 2   
   159  154  167 1   
   160  156  157 1   
   161  156  163 1   
   162  156  164 1   
   163  157  158 1   
   164  157  165 1   
   165  157  166 1   
   166  158  159 1   
   167  158  160 1   
   168  167  168 1   
   169  167  172 1   
   170  168  169 1   
   171  168  170 1   
   172  168  171 1   
   173  174  175 1   
   174  174  176 1   
   175  177  178 1   
   176  177  179 1   
   177  180  181 1   
   178  180  182 1   
   179  183  184 1   
   180  183  185 1   
   181  186  187 1   
   182  186  188 1   
   183  189  190 1   
   184  189  191 1   
@<TRIPOS>SUBSTRUCTURE
     1 MOL         1 TEMP              0 ****  ****    0 ROOT
