@<TRIPOS>MOLECULE
MOL
  188   182     1     0     0
SMALL
resp


@<TRIPOS>ATOM
      1 C1          6.7690    0.1130    5.1410 c3        1 MOL     -0.455927
      2 C2          6.0610    0.1470    3.7430 c         1 MOL      0.664485
      3 O1          4.8730    0.3950    3.6300 o         1 MOL     -0.601693
      4 H1          7.2420    1.0770    5.3330 hc        1 MOL      0.118698
      5 H2          6.0320   -0.0900    5.9180 hc        1 MOL      0.118698
      6 H3          7.5270   -0.6710    5.1460 hc        1 MOL      0.118698
      7 N1          6.7900   -0.1660    2.6630 n         1 MOL     -0.408585
      8 C3          6.2920    0.0840    1.2610 c3        1 MOL     -0.008623
      9 C4          5.6230   -1.1360    0.6790 c         1 MOL      0.410839
     10 O2          4.6120   -0.8660    0.0060 o         1 MOL     -0.571203
     11 C5          7.3320    0.7190    0.3020 c3        1 MOL     -0.183407
     12 C6          8.5700   -0.0770    0.1570 c         1 MOL      0.743146
     13 O3          8.8100   -1.0760    0.8670 o         1 MOL     -0.674846
     14 O4          9.3820    0.3080   -0.6820 o         1 MOL     -0.674846
     15 H4          7.8000   -0.2030    2.7440 hn        1 MOL      0.218029
     16 H5          5.4890    0.8260    1.3400 h1        1 MOL      0.084600
     17 H6          7.5790    1.6930    0.7360 hc        1 MOL      0.089530
     18 H7          6.8740    0.7720   -0.6780 hc        1 MOL      0.089530
     19 N2          6.0980   -2.3380    1.0000 n         1 MOL     -0.291192
     20 C7          5.3850   -3.6060    0.5870 c3        1 MOL      0.171475
     21 C8          5.2880   -3.8960   -0.9480 c         1 MOL      0.493655
     22 O5          6.2390   -4.3440   -1.5200 o         1 MOL     -0.525101
     23 C9          5.9310   -4.7800    1.4550 c3        1 MOL     -0.363225
     24 C10         5.6230   -4.7300    2.9740 c3        1 MOL      0.275714
     25 C11         6.3280   -5.8780    3.7120 c3        1 MOL      0.021468
     26 C12         6.2340   -5.6570    5.2210 c3        1 MOL      0.002462
     27 N3          6.9570   -6.6750    5.9980 n4        1 MOL     -0.303875
     28 H8          6.8690   -2.2480    1.6510 hn        1 MOL      0.261635
     29 H9          4.3350   -3.4840    0.8790 h1        1 MOL      0.023575
     30 H10         7.0130   -4.7590    1.3460 hc        1 MOL      0.097353
     31 H11         5.4690   -5.7010    1.0780 hc        1 MOL      0.097353
     32 H12         4.5400   -4.7290    3.0870 hc        1 MOL     -0.066006
     33 H13         5.9560   -3.7430    3.3020 hc        1 MOL     -0.066006
     34 H14         7.4030   -5.9240    3.5110 hc        1 MOL      0.020437
     35 H15         5.8830   -6.8300    3.4090 hc        1 MOL      0.020437
     36 H16         5.1870   -5.6410    5.5260 hx        1 MOL      0.068756
     37 H17         6.7710   -4.7220    5.3500 hx        1 MOL      0.068756
     38 H18         6.7760   -6.6160    6.9900 hn        1 MOL      0.289879
     39 H19         6.5670   -7.5840    5.8100 hn        1 MOL      0.289879
     40 H20         7.9410   -6.6420    5.7880 hn        1 MOL      0.289879
     41 N4          4.2100   -3.4680   -1.5590 n         1 MOL     -0.364194
     42 C13         4.1050   -3.5430   -3.0270 c3        1 MOL      0.154790
     43 C14         4.3940   -2.1800   -3.7010 c         1 MOL      0.441163
     44 O6          4.4190   -2.0830   -4.9080 o         1 MOL     -0.526566
     45 C15         2.7330   -4.1180   -3.4020 c3        1 MOL     -0.411774
     46 C16         1.4770   -3.6190   -2.8470 c         1 MOL      0.829136
     47 O7          1.3660   -2.7320   -1.9790 o         1 MOL     -0.722414
     48 O8          0.3600   -3.9540   -3.3370 o         1 MOL     -0.722414
     49 H21         3.4750   -3.0560   -1.0120 hn        1 MOL      0.183756
     50 H22         4.8920   -4.1890   -3.4340 h1        1 MOL      0.096066
     51 H23         2.7600   -5.1970   -3.3790 hc        1 MOL      0.116150
     52 H24         2.6230   -3.8270   -4.4540 hc        1 MOL      0.116150
     53 N5          4.4270   -1.0990   -2.9150 n         1 MOL     -0.365950
     54 C17         4.6530    0.2690   -3.3390 c3        1 MOL     -0.007583
     55 C18         6.1110    0.6430   -3.5430 c         1 MOL      0.592964
     56 O9          7.0620   -0.1550   -3.7360 o         1 MOL     -0.489069
     57 H25         4.3910   -1.2950   -1.9280 hn        1 MOL      0.309964
     58 H26         4.1630    0.8540   -2.5600 h1        1 MOL      0.058905
     59 H27         4.1990    0.4760   -4.3140 h1        1 MOL      0.058905
     60 N6          6.4440    1.9150   -3.4530 n         1 MOL     -0.731467
     61 C19         5.6280    3.0580   -3.0330 c3        1 MOL      0.555758
     62 C20         5.5680    3.3190   -1.5100 c         1 MOL      0.528853
     63 O10         6.6290    3.5490   -0.9510 o         1 MOL     -0.551219
     64 C21         6.2300    4.1770   -3.8650 c3        1 MOL     -0.352417
     65 C22         5.7260    5.5420   -3.5970 c         1 MOL      0.648028
     66 N7          6.3980    6.4710   -4.1210 n         1 MOL     -0.703654
     67 O11         4.8040    5.7940   -2.8570 o         1 MOL     -0.556677
     68 H28         7.4440    2.0590   -3.5350 hn        1 MOL      0.354580
     69 H29         4.5950    2.9980   -3.3820 h1        1 MOL     -0.062903
     70 H30         5.9540    3.9090   -4.8830 hc        1 MOL      0.089802
     71 H31         7.3040    4.1460   -3.6970 hc        1 MOL      0.089802
     72 H32         7.1460    6.1990   -4.7380 hn        1 MOL      0.345231
     73 H33         6.0780    7.4150   -3.9680 hn        1 MOL      0.345231
     74 N8          4.4250    3.3550   -0.7860 n         1 MOL     -0.497809
     75 C23         3.0090    3.2000   -1.2210 c3        1 MOL     -0.010392
     76 C24         1.9300    3.6040   -0.2390 c         1 MOL      0.667572
     77 O12         2.2220    4.4520    0.6290 o         1 MOL     -0.550034
     78 H34         4.5960    3.4630    0.2040 hn        1 MOL      0.308738
     79 H35         2.8410    2.1890   -1.5970 h1        1 MOL      0.028283
     80 H36         2.7850    3.8700   -2.0470 h1        1 MOL      0.028283
     81 N9          0.6900    3.0950   -0.2990 n         1 MOL     -0.518732
     82 C25        -0.3470    3.4030    0.6940 c3        1 MOL      0.159873
     83 C26        -1.3100    2.2020    0.9440 c         1 MOL      0.653006
     84 O13        -1.2000    1.0870    0.4250 o         1 MOL     -0.638854
     85 C27        -1.0460    4.7400    0.2420 c3        1 MOL     -0.100037
     86 C28        -1.4340    5.7280    1.2720 ca        1 MOL      0.073908
     87 C29        -2.7410    6.1630    1.2210 ca        1 MOL     -0.148535
     88 C30        -0.5300    6.2450    2.3080 ca        1 MOL     -0.148535
     89 C31        -3.1090    7.2000    2.0740 ca        1 MOL     -0.282181
     90 C32        -0.9740    7.1710    3.2610 ca        1 MOL     -0.282181
     91 C33        -2.2540    7.6620    3.0740 ca        1 MOL      0.390069
     92 O14        -2.6650    8.6510    4.0350 oh        1 MOL     -0.580188
     93 H37         0.4240    2.5650   -1.1060 hn        1 MOL      0.265250
     94 H38         0.0740    3.5370    1.6870 h1        1 MOL      0.002307
     95 H39        -1.9140    4.4550   -0.3620 hc        1 MOL      0.058062
     96 H40        -0.4220    5.2320   -0.5030 hc        1 MOL      0.058062
     97 H41        -3.3800    5.9050    0.3880 ha        1 MOL      0.141848
     98 H42         0.4240    5.7410    2.3980 ha        1 MOL      0.141848
     99 H43        -4.0880    7.6470    1.9660 ha        1 MOL      0.161928
    100 H44        -0.2690    7.4560    4.0320 ha        1 MOL      0.161928
    101 H45        -2.0200    8.8620    4.7170 ho        1 MOL      0.395928
    102 N10        -2.3210    2.4670    1.8260 n         1 MOL     -0.489065
    103 C34        -3.5880    1.6360    2.1010 c3        1 MOL      0.230158
    104 C35        -4.8160    2.1070    1.2760 c         1 MOL      0.558006
    105 O15        -4.7080    3.1020    0.5260 o         1 MOL     -0.550956
    106 C36        -3.8590    1.4810    3.5830 c3        1 MOL     -0.001283
    107 C37        -2.8930    0.5020    4.2250 c3        1 MOL      0.207647
    108 C38        -3.8780    2.8360    4.2660 c3        1 MOL     -0.188821
    109 C39        -3.0730    0.5110    5.7870 c3        1 MOL     -0.374545
    110 H46        -2.2270    3.3230    2.3460 hn        1 MOL      0.225106
    111 H47        -3.4480    0.6490    1.6720 h1        1 MOL     -0.012776
    112 H48        -4.8590    1.0720    3.7020 hc        1 MOL      0.023453
    113 H49        -1.8820    0.7530    3.8960 hc        1 MOL     -0.046164
    114 H50        -3.0630   -0.4860    3.7910 hc        1 MOL     -0.046164
    115 H51        -4.4630    2.8790    5.1880 hc        1 MOL      0.046816
    116 H52        -2.8900    3.3030    4.3410 hc        1 MOL      0.046816
    117 H53        -4.4430    3.4960    3.6100 hc        1 MOL      0.046816
    118 H54        -2.5100    1.2500    6.3600 hc        1 MOL      0.097460
    119 H55        -4.1510    0.5810    5.9210 hc        1 MOL      0.097460
    120 H56        -2.7760   -0.4810    6.1270 hc        1 MOL      0.097460
    121 N11        -5.9090    1.3970    1.4550 n         1 MOL     -0.394333
    122 C40        -7.1930    1.6600    0.8440 c3        1 MOL     -0.000395
    123 C41        -7.0350    1.1650   -0.5830 c         1 MOL      0.549459
    124 O16        -6.3900    0.1390   -0.9090 o         1 MOL     -0.477212
    125 C42        -8.4090    0.9140    1.5770 c3        1 MOL     -0.193480
    126 O17        -8.0330   -0.4570    1.8170 oh        1 MOL     -0.402890
    127 H57        -5.8660    0.4660    1.8670 hn        1 MOL      0.280054
    128 H58        -7.3700    2.7230    0.6590 h1        1 MOL      0.078574
    129 H59        -9.2900    0.9570    0.9370 h1        1 MOL      0.128375
    130 H60        -8.5780    1.3570    2.5590 h1        1 MOL      0.128375
    131 H61        -8.8240   -1.0080    1.8440 ho        1 MOL      0.375809
    132 N12        -7.7420    1.7930   -1.4670 n         1 MOL     -0.510361
    133 C43        -7.8130    1.4970   -2.9030 c3        1 MOL      0.378147
    134 C44        -8.2950    0.0240   -3.1670 c         1 MOL      0.243691
    135 O18        -7.5920   -0.6720   -3.9510 o         1 MOL     -0.430745
    136 C45        -6.5360    1.8310   -3.5160 c3        1 MOL     -0.428795
    137 H62        -8.2110    2.6540   -1.2140 hn        1 MOL      0.282793
    138 H63        -8.6320    2.1310   -3.2380 h1        1 MOL     -0.006758
    139 H64        -5.7080    1.3790   -2.9690 hc        1 MOL      0.122051
    140 H65        -6.5280    1.4710   -4.5520 hc        1 MOL      0.122051
    141 H66        -6.4280    2.9130   -3.4680 hc        1 MOL      0.122051
    142 N13        -9.2830   -0.4350   -2.4570 n         1 MOL     -0.296862
    143 C46        -9.7010   -1.8460   -2.2880 c3        1 MOL      0.174091
    144 C47        -8.6590   -2.9160   -1.7800 c         1 MOL      0.354062
    145 O19        -8.8170   -4.1080   -2.0550 o         1 MOL     -0.460917
    146 C48       -10.4760   -2.2250   -3.4650 c3        1 MOL     -0.235734
    147 H67        -9.6870    0.3060   -1.9040 hn        1 MOL      0.209425
    148 H68       -10.3330   -1.7400   -1.4040 h1        1 MOL      0.020326
    149 H69       -11.1050   -3.1020   -3.3430 hc        1 MOL      0.077753
    150 H70       -11.1140   -1.4210   -3.8370 hc        1 MOL      0.077753
    151 H71        -9.7840   -2.5160   -4.2530 hc        1 MOL      0.077753
    152 N14        -7.5360   -2.5750   -1.0870 n         1 MOL     -0.280396
    153 C49        -6.6230   -3.6200   -0.6050 c3        1 MOL     -0.004781
    154 C50        -7.0350   -4.4120    0.6830 c         1 MOL      0.340641
    155 O20        -6.9000   -5.6190    0.7160 o         1 MOL     -0.488944
    156 C51        -5.3040   -2.7890   -0.2540 c3        1 MOL      0.136854
    157 C52        -4.1560   -3.6590    0.1460 c3        1 MOL     -0.062196
    158 C53        -2.7810   -2.9600    0.1140 c         1 MOL      0.565723
    159 O21        -2.7220   -1.6940    0.2670 o         1 MOL     -0.665207
    160 O22        -1.7910   -3.7270   -0.0660 o         1 MOL     -0.665207
    161 H72        -7.2580   -1.6110   -0.9620 hn        1 MOL      0.187405
    162 H73        -6.3320   -4.3610   -1.3520 h1        1 MOL      0.120054
    163 H74        -5.4680   -2.0280    0.5160 hc        1 MOL     -0.003014
    164 H75        -4.8510   -2.1970   -1.0490 hc        1 MOL     -0.003014
    165 H76        -4.1300   -4.5220   -0.5170 hc        1 MOL      0.014913
    166 H77        -4.2080   -4.0880    1.1370 hc        1 MOL      0.014913
    167 N15        -7.5030   -3.7300    1.7200 n         1 MOL     -0.077412
    168 C54        -7.8330   -4.3840    3.0230 c3        1 MOL     -0.328837
    169 H78        -8.5380   -5.1980    2.8520 h1        1 MOL      0.127425
    170 H79        -6.9220   -4.7810    3.4710 h1        1 MOL      0.127425
    171 H80        -8.2800   -3.6520    3.6960 h1        1 MOL      0.127425
    172 H81        -7.5590   -2.7220    1.6780 hn        1 MOL      0.049097
    173 Ca1        -0.2620   -1.4150   -0.4340 Ca        1 MOL      1.726125
    174 O23        -0.2720   -0.8350    2.3070 oh        1 MOL     -0.835790
    175 H82         0.5940   -0.7260    2.6890 ho        1 MOL      0.404764
    176 H83        -0.8310   -0.2250    2.7810 ho        1 MOL      0.404764
    177 O24         1.4110   -2.8000    1.0970 oh        1 MOL     -0.835790
    178 H84         1.8480   -2.3660    1.8230 ho        1 MOL      0.404764
    179 H85         1.6500   -3.7260    1.1890 ho        1 MOL      0.404764
    180 O25         0.0780    0.5840   -2.2480 oh        1 MOL     -0.835790
    181 H86        -0.3210    1.4490   -2.3770 ho        1 MOL      0.404764
    182 H87        -0.0040    0.1560   -3.0950 ho        1 MOL      0.404764
    183 O26         1.8630   -0.0640    0.3000 oh        1 MOL     -0.835790
    184 H88         2.0510    0.6660    0.8930 ho        1 MOL      0.404764
    185 H89         2.7190   -0.4330    0.0960 ho        1 MOL      0.404764
    186 O27        -1.5460   -2.0330   -2.6750 oh        1 MOL     -0.835790
    187 H90        -1.0250   -2.7800   -2.9950 ho        1 MOL      0.404764
    188 H91        -1.8210   -1.5780   -3.4610 ho        1 MOL      0.404764
@<TRIPOS>BOND
     1    1    2 1   
     2    1    4 1   
     3    1    5 1   
     4    1    6 1   
     5    2    3 2   
     6    2    7 1   
     7    7    8 1   
     8    7   15 1   
     9    8    9 1   
    10    8   11 1   
    11    8   16 1   
    12    9   10 2   
    13    9   19 1   
    14   11   12 1   
    15   11   17 1   
    16   11   18 1   
    17   12   13 1   
    18   12   14 1   
    19   19   20 1   
    20   19   28 1   
    21   20   21 1   
    22   20   23 1   
    23   20   29 1   
    24   21   22 2   
    25   21   41 1   
    26   23   24 1   
    27   23   30 1   
    28   23   31 1   
    29   24   25 1   
    30   24   32 1   
    31   24   33 1   
    32   25   26 1   
    33   25   34 1   
    34   25   35 1   
    35   26   27 1   
    36   26   36 1   
    37   26   37 1   
    38   27   38 1   
    39   27   39 1   
    40   27   40 1   
    41   41   42 1   
    42   41   49 1   
    43   42   43 1   
    44   42   45 1   
    45   42   50 1   
    46   43   44 2   
    47   43   53 1   
    48   45   46 1   
    49   45   51 1   
    50   45   52 1   
    51   46   47 1   
    52   46   48 1   
    53   53   54 1   
    54   53   57 1   
    55   54   55 1   
    56   54   58 1   
    57   54   59 1   
    58   55   56 2   
    59   55   60 1   
    60   60   61 1   
    61   60   68 1   
    62   61   62 1   
    63   61   64 1   
    64   61   69 1   
    65   62   63 2   
    66   62   74 1   
    67   64   65 1   
    68   64   70 1   
    69   64   71 1   
    70   65   66 1   
    71   65   67 2   
    72   66   72 1   
    73   66   73 1   
    74   74   75 1   
    75   74   78 1   
    76   75   76 1   
    77   75   79 1   
    78   75   80 1   
    79   76   77 2   
    80   76   81 1   
    81   81   82 1   
    82   81   93 1   
    83   82   83 1   
    84   82   85 1   
    85   82   94 1   
    86   83   84 2   
    87   83  102 1   
    88   85   86 1   
    89   85   95 1   
    90   85   96 1   
    91   86   87 ar  
    92   86   88 ar  
    93   87   89 ar  
    94   87   97 1   
    95   88   90 ar  
    96   88   98 1   
    97   89   91 ar  
    98   89   99 1   
    99   90   91 ar  
   100   90  100 1   
   101   91   92 1   
   102   92  101 1   
   103  102  103 1   
   104  102  110 1   
   105  103  104 1   
   106  103  106 1   
   107  103  111 1   
   108  104  105 2   
   109  104  121 1   
   110  106  107 1   
   111  106  108 1   
   112  106  112 1   
   113  107  109 1   
   114  107  113 1   
   115  107  114 1   
   116  108  115 1   
   117  108  116 1   
   118  108  117 1   
   119  109  118 1   
   120  109  119 1   
   121  109  120 1   
   122  121  122 1   
   123  121  127 1   
   124  122  123 1   
   125  122  125 1   
   126  122  128 1   
   127  123  124 2   
   128  123  132 1   
   129  125  126 1   
   130  125  129 1   
   131  125  130 1   
   132  126  131 1   
   133  132  133 1   
   134  132  137 1   
   135  133  134 1   
   136  133  136 1   
   137  133  138 1   
   138  134  135 2   
   139  134  142 1   
   140  136  139 1   
   141  136  140 1   
   142  136  141 1   
   143  142  143 1   
   144  142  147 1   
   145  143  144 1   
   146  143  146 1   
   147  143  148 1   
   148  144  145 2   
   149  144  152 1   
   150  146  149 1   
   151  146  150 1   
   152  146  151 1   
   153  152  153 1   
   154  152  161 1   
   155  153  154 1   
   156  153  156 1   
   157  153  162 1   
   158  154  155 2   
   159  154  167 1   
   160  156  157 1   
   161  156  163 1   
   162  156  164 1   
   163  157  158 1   
   164  157  165 1   
   165  157  166 1   
   166  158  159 1   
   167  158  160 1   
   168  167  168 1   
   169  167  172 1   
   170  168  169 1   
   171  168  170 1   
   172  168  171 1   
   173  174  175 1   
   174  174  176 1   
   175  177  178 1   
   176  177  179 1   
   177  180  181 1   
   178  180  182 1   
   179  183  184 1   
   180  183  185 1   
   181  186  187 1   
   182  186  188 1   
@<TRIPOS>SUBSTRUCTURE
     1 MOL         1 TEMP              0 ****  ****    0 ROOT
