@<TRIPOS>MOLECULE
MOL
  188   182     1     0     0
SMALL
resp


@<TRIPOS>ATOM
      1 C1         -7.0280   -0.7540    3.3770 c3        1 MOL     -0.331930
      2 C2         -7.0050   -1.3240    1.9230 c         1 MOL      0.723162
      3 O1         -6.0850   -1.0250    1.1060 o         1 MOL     -0.560262
      4 H1         -7.9130   -0.1300    3.5080 hc        1 MOL      0.082990
      5 H2         -7.0570   -1.5780    4.0910 hc        1 MOL      0.082990
      6 H3         -6.1340   -0.1550    3.5480 hc        1 MOL      0.082990
      7 N1         -8.0410   -2.0840    1.5000 n         1 MOL     -0.552196
      8 C3         -8.3480   -2.4460    0.1150 c3        1 MOL      0.094493
      9 C4         -8.3810   -1.1990   -0.8430 c         1 MOL      0.574181
     10 O2         -8.1280   -1.3610   -2.0660 o         1 MOL     -0.499473
     11 C5         -7.5100   -3.6010   -0.3940 c3        1 MOL     -0.311885
     12 C6         -7.6000   -4.8160    0.4980 c         1 MOL      0.778142
     13 O3         -6.6280   -5.2410    1.1300 o         1 MOL     -0.668524
     14 O4         -8.6570   -5.4680    0.5180 o         1 MOL     -0.668524
     15 H4         -8.6980   -2.3560    2.2190 hn        1 MOL      0.314795
     16 H5         -9.3650   -2.8320    0.0430 h1        1 MOL      0.044430
     17 H6         -6.5120   -3.1490   -0.3540 hc        1 MOL      0.105646
     18 H7         -7.6710   -3.8620   -1.4390 hc        1 MOL      0.105646
     19 N2         -8.7910    0.0550   -0.3950 n         1 MOL     -0.541087
     20 C7         -8.8360    1.2680   -1.1890 c3        1 MOL      0.054828
     21 C8         -7.4650    1.8960   -1.5350 c         1 MOL      0.365723
     22 O5         -7.4060    2.7840   -2.4260 o         1 MOL     -0.519657
     23 C9         -9.7490    2.2340   -0.5280 c3        1 MOL     -0.051064
     24 C10        -9.2340    2.9530    0.7650 c3        1 MOL      0.077033
     25 C11       -10.4270    3.6530    1.4810 c3        1 MOL     -0.211244
     26 C12        -9.8280    4.4600    2.6460 c3        1 MOL      0.192669
     27 N3        -10.8530    5.3860    3.0970 n4        1 MOL     -0.220252
     28 H8         -9.0180    0.0540    0.5870 hn        1 MOL      0.246609
     29 H9         -9.3060    0.9550   -2.1240 h1        1 MOL      0.148254
     30 H10       -10.6450    1.6620   -0.3110 hc        1 MOL      0.034446
     31 H11       -10.1830    2.9690   -1.2060 hc        1 MOL      0.034446
     32 H12        -8.4140    3.6480    0.6200 hc        1 MOL      0.019335
     33 H13        -8.7860    2.2460    1.4720 hc        1 MOL      0.019335
     34 H14       -11.1320    2.9300    1.9050 hc        1 MOL      0.070718
     35 H15       -10.8770    4.4090    0.8450 hc        1 MOL      0.070718
     36 H16        -8.8940    4.9470    2.3650 hx        1 MOL      0.023486
     37 H17        -9.5560    3.8210    3.4910 hx        1 MOL      0.023486
     38 H18       -10.4840    5.9700    3.8370 hn        1 MOL      0.198283
     39 H19       -11.1040    6.0060    2.3370 hn        1 MOL      0.198283
     40 H20       -11.6780    4.8950    3.4180 hn        1 MOL      0.198283
     41 N4         -6.3640    1.3580   -0.9920 n         1 MOL     -0.149038
     42 C13        -5.0250    1.9290   -1.1460 c3        1 MOL     -0.161568
     43 C14        -4.5200    2.0930   -2.5540 c         1 MOL      0.693833
     44 O6         -4.7860    1.2050   -3.3120 o         1 MOL     -0.439407
     45 C15        -4.0580    1.2150   -0.1810 c3        1 MOL     -0.052105
     46 C16        -2.5340    1.6310   -0.2020 c         1 MOL      0.714321
     47 O7         -1.9460    2.2620    0.7380 o         1 MOL     -0.764957
     48 O8         -1.8390    1.2760   -1.1550 o         1 MOL     -0.764957
     49 H21        -6.4700    0.5480   -0.3930 hn        1 MOL      0.133912
     50 H22        -5.1420    2.9500   -0.8030 h1        1 MOL      0.035046
     51 H23        -4.1570    0.1430   -0.3500 hc        1 MOL      0.029890
     52 H24        -4.3380    1.4310    0.8480 hc        1 MOL      0.029890
     53 N5         -3.5590    3.0200   -2.8760 n         1 MOL     -0.578478
     54 C17        -2.9840    3.2570   -4.1920 c3        1 MOL     -0.013851
     55 C18        -2.1970    1.9840   -4.7580 c         1 MOL      0.366661
     56 O9         -2.2830    1.6760   -5.9330 o         1 MOL     -0.543593
     57 H25        -3.2490    3.6770   -2.1720 hn        1 MOL      0.316172
     58 H26        -2.4050    4.1580   -4.3300 h1        1 MOL      0.087554
     59 H27        -3.8400    3.3370   -4.8690 h1        1 MOL      0.087554
     60 N6         -1.6010    1.2540   -3.9030 n         1 MOL     -0.118042
     61 C19        -0.9140   -0.0500   -4.2200 c3        1 MOL      0.069215
     62 C20        -1.4120   -1.2880   -3.4340 c         1 MOL      0.511460
     63 O10        -0.8100   -2.3220   -3.4120 o         1 MOL     -0.538711
     64 C21         0.5890    0.2340   -4.3120 c3        1 MOL     -0.378513
     65 C22         1.3930    0.3510   -3.0560 c         1 MOL      0.783819
     66 N7          2.6120   -0.1330   -3.1280 n         1 MOL     -0.847606
     67 O11         1.0260    0.8020   -2.0030 o         1 MOL     -0.763892
     68 H28        -1.5220    1.6510   -2.9760 hn        1 MOL      0.143933
     69 H29        -1.2050   -0.3540   -5.2250 h1        1 MOL      0.107348
     70 H30         0.7780    1.1290   -4.9070 hc        1 MOL      0.131573
     71 H31         0.9280   -0.6200   -4.8920 hc        1 MOL      0.131573
     72 H32         3.0530   -0.2520   -4.0210 hn        1 MOL      0.384224
     73 H33         3.0160   -0.1470   -2.2010 hn        1 MOL      0.384224
     74 N8         -2.6730   -1.2180   -2.8780 n         1 MOL     -0.286539
     75 C23        -3.2790   -2.3690   -2.1790 c3        1 MOL      0.065869
     76 C24        -2.7340   -2.6170   -0.7890 c         1 MOL      0.440024
     77 O12        -3.1950   -3.6500   -0.2250 o         1 MOL     -0.506910
     78 H34        -3.1880   -0.3490   -2.9450 hn        1 MOL      0.152850
     79 H35        -3.1440   -3.2640   -2.7740 h1        1 MOL      0.068567
     80 H36        -4.3680   -2.2880   -2.1160 h1        1 MOL      0.068567
     81 N9         -1.8700   -1.8380   -0.1960 n         1 MOL     -0.305706
     82 C25        -1.3660   -1.9860    1.1700 c3        1 MOL      0.034409
     83 C26         0.0540   -1.4290    1.2070 c         1 MOL      0.051704
     84 O13         0.3210   -0.3030    0.7850 o         1 MOL     -0.247673
     85 C27        -2.3030   -1.3200    2.2430 c3        1 MOL     -0.334356
     86 C28        -1.6280   -1.1070    3.6520 ca        1 MOL      0.148080
     87 C29        -1.6370   -2.0820    4.6520 ca        1 MOL     -0.234209
     88 C30        -1.0440    0.1210    3.8730 ca        1 MOL     -0.234209
     89 C31        -1.2020   -1.7240    5.9440 ca        1 MOL     -0.167953
     90 C32        -0.4700    0.4200    5.1240 ca        1 MOL     -0.167953
     91 C33        -0.7000   -0.4710    6.1830 ca        1 MOL      0.237194
     92 O14        -0.3340   -0.1410    7.4920 oh        1 MOL     -0.474890
     93 H37        -1.4560   -1.0650   -0.6880 hn        1 MOL      0.296607
     94 H38        -1.3990   -3.0350    1.4300 h1        1 MOL      0.076359
     95 H39        -3.1780   -1.9500    2.3480 hc        1 MOL      0.172067
     96 H40        -2.6470   -0.3790    1.8070 hc        1 MOL      0.172067
     97 H41        -1.9080   -3.1100    4.4460 ha        1 MOL      0.159376
     98 H42        -1.0060    0.8630    3.0920 ha        1 MOL      0.159376
     99 H43        -1.1990   -2.3580    6.8170 ha        1 MOL      0.139492
    100 H44        -0.0440    1.3900    5.2750 ha        1 MOL      0.139492
    101 H45        -0.1100    0.7970    7.5600 ho        1 MOL      0.350588
    102 N10         0.9660   -2.1700    1.8130 n         1 MOL     -0.008190
    103 C34         2.3720   -1.8100    1.7160 c3        1 MOL     -0.523374
    104 C35         2.9630   -1.9830    0.2910 c         1 MOL      0.374692
    105 O15         3.7430   -1.1230   -0.1210 o         1 MOL     -0.447843
    106 C36         3.1330   -2.6440    2.7530 c3        1 MOL      0.029774
    107 C37         2.6840   -2.1390    4.1510 c3        1 MOL     -0.042791
    108 C38         4.6090   -2.2840    2.7290 c3        1 MOL     -0.343183
    109 C39         2.7230   -0.6070    4.4830 c3        1 MOL     -0.091593
    110 H46         0.6510   -3.0180    2.2560 hn        1 MOL      0.256005
    111 H47         2.5160   -0.7600    1.9770 h1        1 MOL      0.246981
    112 H48         3.0460   -3.7170    2.6000 hc        1 MOL      0.075355
    113 H49         3.2270   -2.6700    4.9360 hc        1 MOL      0.051895
    114 H50         1.6310   -2.4220    4.1820 hc        1 MOL      0.051895
    115 H51         4.7860   -1.2050    2.8070 hc        1 MOL      0.114193
    116 H52         5.1560   -2.8620    3.4670 hc        1 MOL      0.114193
    117 H53         5.0880   -2.6090    1.8000 hc        1 MOL      0.114193
    118 H54         1.9680   -0.0450    3.9280 hc        1 MOL      0.021386
    119 H55         2.4860   -0.4780    5.5340 hc        1 MOL      0.021386
    120 H56         3.7210   -0.2180    4.2970 hc        1 MOL      0.021386
    121 N11         2.4820   -2.9550   -0.5030 n         1 MOL     -0.025369
    122 C40         2.9480   -3.2880   -1.8900 c3        1 MOL     -0.275879
    123 C41         4.4370   -3.5030   -2.0080 c         1 MOL      0.724658
    124 O16         5.0350   -3.3870   -3.0920 o         1 MOL     -0.565805
    125 C42         2.3320   -4.6690   -2.2010 c3        1 MOL      0.137700
    126 O17         2.5990   -5.6890   -1.2630 oh        1 MOL     -0.631112
    127 H57         1.7590   -3.5470   -0.1190 hn        1 MOL      0.225500
    128 H58         2.7400   -2.4990   -2.6070 h1        1 MOL      0.132812
    129 H59         2.8690   -4.8890   -3.1170 h1        1 MOL      0.049760
    130 H60         1.2950   -4.6420   -2.5620 h1        1 MOL      0.049760
    131 H61         2.4000   -6.4760   -1.7830 ho        1 MOL      0.440186
    132 N12         5.1180   -3.7640   -0.8880 n         1 MOL     -0.484176
    133 C43         6.5740   -3.8570   -0.7610 c3        1 MOL      0.189290
    134 C44         7.4490   -2.6750   -1.3310 c         1 MOL      0.552314
    135 O18         8.6580   -2.8650   -1.4750 o         1 MOL     -0.516451
    136 C45         7.1230   -5.3040   -1.1180 c3        1 MOL     -0.560334
    137 H62         4.5910   -3.9420   -0.0360 hn        1 MOL      0.290553
    138 H63         6.7290   -3.7810    0.3130 h1        1 MOL      0.061488
    139 H64         6.9440   -5.4400   -2.1890 hc        1 MOL      0.161081
    140 H65         8.2050   -5.2990   -0.9600 hc        1 MOL      0.161081
    141 H66         6.6640   -6.0560   -0.4830 hc        1 MOL      0.161081
    142 N13         6.8190   -1.4550   -1.4440 n         1 MOL     -0.491613
    143 C46         7.4310   -0.2350   -1.8450 c3        1 MOL      0.292004
    144 C47         8.0340    0.4410   -0.6800 c         1 MOL      0.450284
    145 O19         7.3540    0.3970    0.3740 o         1 MOL     -0.490261
    146 C48         6.3850    0.5990   -2.6060 c3        1 MOL     -0.072695
    147 H67         5.8860   -1.3570   -1.0800 hn        1 MOL      0.166314
    148 H68         8.2120   -0.4220   -2.5840 h1        1 MOL     -0.004552
    149 H69         6.8260    1.5670   -2.8720 hc        1 MOL      0.022977
    150 H70         6.1860    0.2610   -3.6250 hc        1 MOL      0.022977
    151 H71         5.4540    0.7550   -2.0570 hc        1 MOL      0.022977
    152 N14         9.1250    1.1800   -0.8770 n         1 MOL     -0.673149
    153 C49         9.8440    1.9940    0.0590 c3        1 MOL      0.377331
    154 C50        10.1370    1.3190    1.3650 c         1 MOL      0.249473
    155 O20        10.1340    1.9610    2.4310 o         1 MOL     -0.433654
    156 C51         9.3200    3.4060   -0.0240 c3        1 MOL     -0.002812
    157 C52        10.2290    4.5580    0.4820 c3        1 MOL     -0.121310
    158 C53         9.3270    5.7330    0.6540 c         1 MOL      0.679097
    159 O21         8.9430    5.9660    1.8230 o         1 MOL     -0.674549
    160 O22         8.9450    6.3680   -0.3980 o         1 MOL     -0.674549
    161 H72         9.5680    1.1380   -1.7800 hn        1 MOL      0.347123
    162 H73        10.8300    2.0790   -0.4130 h1        1 MOL      0.000508
    163 H74         8.4250    3.5110    0.5950 hc        1 MOL      0.004991
    164 H75         9.0410    3.5520   -1.0570 hc        1 MOL      0.004991
    165 H76        10.9740    4.6560   -0.3100 hc        1 MOL      0.000990
    166 H77        10.8130    4.3110    1.3710 hc        1 MOL      0.000990
    167 N15        10.2780   -0.0260    1.3540 n         1 MOL     -0.317238
    168 C54        10.1710   -0.8620    2.5750 c3        1 MOL      0.099358
    169 H78        11.1220   -1.3620    2.7560 h1        1 MOL      0.024996
    170 H79         9.9250   -0.2300    3.4290 h1        1 MOL      0.024996
    171 H80         9.3880   -1.6080    2.4380 h1        1 MOL      0.024996
    172 H81        10.2320   -0.5400    0.4810 hn        1 MOL      0.233351
    173 Ca1         0.6020    2.2850    0.1520 Ca        1 MOL      1.683393
    174 O23         3.1190    1.5530    0.4830 oh        1 MOL     -0.770424
    175 H82         3.4490    0.6600    0.5190 ho        1 MOL      0.393081
    176 H83         3.8900    2.0860    0.2750 ho        1 MOL      0.393081
    177 O24         1.4570    2.3640    2.5970 oh        1 MOL     -0.770424
    178 H84         2.3840    2.1190    2.5390 ho        1 MOL      0.393081
    179 H85         1.4170    3.0170    3.2910 ho        1 MOL      0.393081
    180 O25         2.3680    4.1110   -0.6640 oh        1 MOL     -0.770424
    181 H86         3.0310    4.7370   -0.3600 ho        1 MOL      0.393081
    182 H87         2.1780    4.3810   -1.5660 ho        1 MOL      0.393081
    183 O26         0.1110    4.7150    1.3150 oh        1 MOL     -0.770424
    184 H88        -0.7270    4.9430    1.7280 ho        1 MOL      0.393081
    185 H89         0.5720    5.5420    1.2180 ho        1 MOL      0.393081
    186 O27        -0.2860    3.9910   -1.7010 oh        1 MOL     -0.770424
    187 H90        -0.0850    4.8920   -1.4480 ho        1 MOL      0.393081
    188 H91         0.0890    3.8870   -2.5660 ho        1 MOL      0.393081
@<TRIPOS>BOND
     1    1    2 1   
     2    1    4 1   
     3    1    5 1   
     4    1    6 1   
     5    2    3 2   
     6    2    7 1   
     7    7    8 1   
     8    7   15 1   
     9    8    9 1   
    10    8   11 1   
    11    8   16 1   
    12    9   10 2   
    13    9   19 1   
    14   11   12 1   
    15   11   17 1   
    16   11   18 1   
    17   12   13 1   
    18   12   14 1   
    19   19   20 1   
    20   19   28 1   
    21   20   21 1   
    22   20   23 1   
    23   20   29 1   
    24   21   22 2   
    25   21   41 1   
    26   23   24 1   
    27   23   30 1   
    28   23   31 1   
    29   24   25 1   
    30   24   32 1   
    31   24   33 1   
    32   25   26 1   
    33   25   34 1   
    34   25   35 1   
    35   26   27 1   
    36   26   36 1   
    37   26   37 1   
    38   27   38 1   
    39   27   39 1   
    40   27   40 1   
    41   41   42 1   
    42   41   49 1   
    43   42   43 1   
    44   42   45 1   
    45   42   50 1   
    46   43   44 2   
    47   43   53 1   
    48   45   46 1   
    49   45   51 1   
    50   45   52 1   
    51   46   47 1   
    52   46   48 1   
    53   53   54 1   
    54   53   57 1   
    55   54   55 1   
    56   54   58 1   
    57   54   59 1   
    58   55   56 2   
    59   55   60 1   
    60   60   61 1   
    61   60   68 1   
    62   61   62 1   
    63   61   64 1   
    64   61   69 1   
    65   62   63 2   
    66   62   74 1   
    67   64   65 1   
    68   64   70 1   
    69   64   71 1   
    70   65   66 1   
    71   65   67 2   
    72   66   72 1   
    73   66   73 1   
    74   74   75 1   
    75   74   78 1   
    76   75   76 1   
    77   75   79 1   
    78   75   80 1   
    79   76   77 2   
    80   76   81 1   
    81   81   82 1   
    82   81   93 1   
    83   82   83 1   
    84   82   85 1   
    85   82   94 1   
    86   83   84 2   
    87   83  102 1   
    88   85   86 1   
    89   85   95 1   
    90   85   96 1   
    91   86   87 ar  
    92   86   88 ar  
    93   87   89 ar  
    94   87   97 1   
    95   88   90 ar  
    96   88   98 1   
    97   89   91 ar  
    98   89   99 1   
    99   90   91 ar  
   100   90  100 1   
   101   91   92 1   
   102   92  101 1   
   103  102  103 1   
   104  102  110 1   
   105  103  104 1   
   106  103  106 1   
   107  103  111 1   
   108  104  105 2   
   109  104  121 1   
   110  106  107 1   
   111  106  108 1   
   112  106  112 1   
   113  107  109 1   
   114  107  113 1   
   115  107  114 1   
   116  108  115 1   
   117  108  116 1   
   118  108  117 1   
   119  109  118 1   
   120  109  119 1   
   121  109  120 1   
   122  121  122 1   
   123  121  127 1   
   124  122  123 1   
   125  122  125 1   
   126  122  128 1   
   127  123  124 2   
   128  123  132 1   
   129  125  126 1   
   130  125  129 1   
   131  125  130 1   
   132  126  131 1   
   133  132  133 1   
   134  132  137 1   
   135  133  134 1   
   136  133  136 1   
   137  133  138 1   
   138  134  135 2   
   139  134  142 1   
   140  136  139 1   
   141  136  140 1   
   142  136  141 1   
   143  142  143 1   
   144  142  147 1   
   145  143  144 1   
   146  143  146 1   
   147  143  148 1   
   148  144  145 2   
   149  144  152 1   
   150  146  149 1   
   151  146  150 1   
   152  146  151 1   
   153  152  153 1   
   154  152  161 1   
   155  153  154 1   
   156  153  156 1   
   157  153  162 1   
   158  154  155 2   
   159  154  167 1   
   160  156  157 1   
   161  156  163 1   
   162  156  164 1   
   163  157  158 1   
   164  157  165 1   
   165  157  166 1   
   166  158  159 1   
   167  158  160 1   
   168  167  168 1   
   169  167  172 1   
   170  168  169 1   
   171  168  170 1   
   172  168  171 1   
   173  174  175 1   
   174  174  176 1   
   175  177  178 1   
   176  177  179 1   
   177  180  181 1   
   178  180  182 1   
   179  183  184 1   
   180  183  185 1   
   181  186  187 1   
   182  186  188 1   
@<TRIPOS>SUBSTRUCTURE
     1 MOL         1 TEMP              0 ****  ****    0 ROOT
