@<TRIPOS>MOLECULE
MOL
  181   177     1     0     0
SMALL
resp


@<TRIPOS>ATOM
      1 C1          3.9950   -1.4660    4.3080 c3        1 MOL     -0.349377
      2 C2          5.1150   -0.5440    3.6710 c         1 MOL      0.758543
      3 O1          4.8510    0.5330    3.1570 o         1 MOL     -0.604583
      4 H1          4.0320   -1.3830    5.3940 hc        1 MOL      0.079452
      5 H2          3.0160   -1.1470    3.9520 hc        1 MOL      0.079452
      6 H3          4.1680   -2.5020    4.0170 hc        1 MOL      0.079452
      7 N1          6.3460   -1.0790    3.7110 n         1 MOL     -0.706827
      8 C3          7.4620   -0.3390    3.0430 c3        1 MOL      0.250355
      9 C4          7.2990   -0.1940    1.5030 c         1 MOL      0.543554
     10 O2          6.8800   -1.1230    0.7700 o         1 MOL     -0.550832
     11 C5          8.7200   -1.1600    3.4520 c3        1 MOL     -0.213088
     12 C6          9.9740   -0.6290    2.9700 c         1 MOL      0.727099
     13 O3         10.9140   -1.4560    2.9220 o         1 MOL     -0.746629
     14 O4         10.0800    0.5550    2.6500 o         1 MOL     -0.746629
     15 H4          6.4910   -1.9370    4.2250 hn        1 MOL      0.339151
     16 H5          7.5000    0.6550    3.4910 h1        1 MOL      0.005412
     17 H6          8.5790   -2.1770    3.0790 hc        1 MOL      0.036035
     18 H7          8.7610   -1.2750    4.5390 hc        1 MOL      0.036035
     19 N2          7.6310    1.0120    1.0380 n         1 MOL     -0.369241
     20 C7          7.5570    1.3860   -0.3630 c3        1 MOL      0.084062
     21 C8          6.1550    1.3330   -0.9580 c         1 MOL      0.428431
     22 O5          5.1030    1.7750   -0.3800 o         1 MOL     -0.515890
     23 C9          7.9400    2.9380   -0.4670 c3        1 MOL     -0.136667
     24 H8          7.9890    1.7080    1.6760 hn        1 MOL      0.260161
     25 H9          8.2440    0.8020   -0.9710 h1        1 MOL      0.064620
     26 H10         7.9080    3.1940   -1.5230 hc        1 MOL      0.048640
     27 H11         7.3360    3.6640    0.0860 hc        1 MOL      0.048640
     28 H12         8.9940    3.0690   -0.2240 hc        1 MOL      0.048640
     29 N3          6.0770    0.8040   -2.1840 n         1 MOL     -0.461522
     30 C10         4.8920    0.9920   -3.0570 c3        1 MOL      0.065902
     31 C11         4.6760    2.5110   -3.3720 c         1 MOL      0.695135
     32 O6          5.5320    3.1370   -3.9290 o         1 MOL     -0.573944
     33 C12         4.6220    0.0250   -4.3050 c3        1 MOL     -0.357785
     34 C13         4.9090   -1.5100   -4.1370 c         1 MOL      0.781145
     35 O7          5.4300   -2.1770   -5.0620 o         1 MOL     -0.714373
     36 O8          4.6930   -2.0240   -3.0080 o         1 MOL     -0.714373
     37 H13         6.8300    0.3130   -2.6350 hn        1 MOL      0.346331
     38 H14         4.0870    0.7170   -2.3710 h1        1 MOL      0.014657
     39 H15         5.3040    0.2900   -5.1140 hc        1 MOL      0.059726
     40 H16         3.5980    0.2010   -4.6270 hc        1 MOL      0.059726
     41 N4          3.5240    3.1180   -3.0070 n         1 MOL     -0.459528
     42 C14         3.2320    4.5840   -3.1840 c3        1 MOL     -0.220311
     43 C15         1.8020    5.0640   -3.1660 c         1 MOL      0.611619
     44 O9          1.5690    6.1750   -3.6350 o         1 MOL     -0.581375
     45 H17         2.8270    2.6160   -2.4780 hn        1 MOL      0.279517
     46 H18         3.6780    4.9300   -4.1190 h1        1 MOL      0.133887
     47 H19         3.7710    5.1160   -2.4040 h1        1 MOL      0.133887
     48 N5          0.8750    4.2240   -2.7570 n         1 MOL     -0.349066
     49 C16        -0.5940    4.4520   -2.9370 c3        1 MOL     -0.041128
     50 C17        -1.2530    5.3090   -1.9120 c         1 MOL      0.482034
     51 O10        -0.8160    5.2490   -0.7800 o         1 MOL     -0.495692
     52 C18        -1.2310    3.0720   -2.9700 c3        1 MOL     -0.268772
     53 C19        -2.6660    2.9570   -3.3440 c         1 MOL      0.675214
     54 N6         -3.5420    2.7950   -2.4500 n         1 MOL     -0.779556
     55 O11        -3.0160    2.8790   -4.4860 o         1 MOL     -0.608552
     56 H20         1.1900    3.3130   -2.4530 hn        1 MOL      0.256285
     57 H21        -0.7050    4.9090   -3.9160 h1        1 MOL      0.090857
     58 H22        -1.0310    2.5890   -2.0130 hc        1 MOL      0.106197
     59 H23        -0.5960    2.5510   -3.6900 hc        1 MOL      0.106197
     60 H24        -3.2260    2.7440   -1.5000 hn        1 MOL      0.361005
     61 H25        -4.5240    2.6590   -2.6840 hn        1 MOL      0.361005
     62 N7         -2.3680    5.9930   -2.2370 n         1 MOL     -0.243475
     63 C20        -3.1250    6.8830   -1.2990 c3        1 MOL     -0.292934
     64 C21        -4.1390    6.1840   -0.3860 c         1 MOL      0.624964
     65 O12        -4.9160    5.3100   -0.7240 o         1 MOL     -0.503815
     66 H26        -2.5480    6.1380   -3.2160 hn        1 MOL      0.260726
     67 H27        -3.6450    7.5840   -1.9410 h1        1 MOL      0.117657
     68 H28        -2.4600    7.4350   -0.6370 h1        1 MOL      0.117657
     69 N8         -4.0590    6.6410    0.8680 n         1 MOL     -0.434685
     70 C22        -4.9540    6.1680    1.9280 c3        1 MOL     -0.203775
     71 C23        -4.6150    4.7110    2.3490 c         1 MOL      0.379944
     72 O13        -5.4340    4.0640    3.0040 o         1 MOL     -0.543759
     73 C24        -5.0460    7.0830    3.1450 c3        1 MOL      0.447798
     74 C25        -3.9560    6.8070    4.0900 c3        1 MOL     -0.174717
     75 O14        -5.0540    8.4580    2.7590 oh        1 MOL     -0.615796
     76 H29        -3.4440    7.4090    1.1090 hn        1 MOL      0.286468
     77 H30        -5.9910    6.1160    1.6060 h1        1 MOL      0.145970
     78 H31        -5.9370    6.9870    3.7680 h1        1 MOL      0.031100
     79 H32        -4.1350    8.6680    2.5750 ho        1 MOL      0.359808
     80 H33        -3.9020    7.6260    4.8020 hc        1 MOL      0.027422
     81 H34        -4.1720    5.9300    4.7040 hc        1 MOL      0.027422
     82 H35        -3.0400    6.5750    3.5500 hc        1 MOL      0.027422
     83 N9         -3.4350    4.1350    2.0500 n         1 MOL      0.012976
     84 C26        -2.9750    2.7710    2.3620 c3        1 MOL     -0.058858
     85 C27        -2.4600    1.9620    1.2330 c         1 MOL      0.414180
     86 O15        -2.5470    2.3840    0.0660 o         1 MOL     -0.466347
     87 C28        -1.8840    2.8890    3.4710 c3        1 MOL      0.131083
     88 C29        -0.6760    3.6390    3.0260 c3        1 MOL     -0.067451
     89 C30        -2.5270    3.4090    4.7670 c3        1 MOL     -0.284406
     90 C31         0.4650    3.9860    3.9790 c3        1 MOL     -0.230998
     91 H36        -2.8970    4.5380    1.2920 hn        1 MOL      0.096547
     92 H37        -3.8130    2.1700    2.7060 h1        1 MOL      0.091806
     93 H38        -1.5350    1.8760    3.6730 hc        1 MOL      0.002616
     94 H39        -0.9180    4.5440    2.4720 hc        1 MOL      0.060146
     95 H40        -0.1310    3.0520    2.2950 hc        1 MOL      0.060146
     96 H41        -2.4290    4.4900    4.7980 hc        1 MOL      0.072061
     97 H42        -3.5580    3.0600    4.8740 hc        1 MOL      0.072061
     98 H43        -1.9540    3.0580    5.6260 hc        1 MOL      0.072061
     99 H44         1.1720    4.5820    3.3890 hc        1 MOL      0.065901
    100 H45         0.1210    4.5870    4.8110 hc        1 MOL      0.065901
    101 H46         1.0070    3.1210    4.3640 hc        1 MOL      0.065901
    102 N10        -2.1000    0.6680    1.5300 n         1 MOL     -0.371040
    103 C32        -1.3830   -0.2120    0.5970 c3        1 MOL      0.009141
    104 C33        -2.2530   -1.2690   -0.1110 c         1 MOL      0.578577
    105 O16        -1.8400   -2.4750   -0.1460 o         1 MOL     -0.577651
    106 C34        -0.1980   -0.8860    1.3950 c3        1 MOL     -0.013646
    107 C35         1.0080   -1.4110    0.5330 c         1 MOL      0.709786
    108 O17         1.0850   -0.9850   -0.6240 o         1 MOL     -0.716989
    109 O18         1.7800   -2.2730    0.9000 o         1 MOL     -0.716989
    110 H47        -2.2720    0.3340    2.4670 hn        1 MOL      0.251833
    111 H48        -1.0130    0.3400   -0.2700 h1        1 MOL      0.049793
    112 H49        -0.6090   -1.6850    2.0050 hc        1 MOL      0.015927
    113 H50         0.1130   -0.1720    2.1520 hc        1 MOL      0.015927
    114 N11        -3.5260   -0.9770   -0.3940 n         1 MOL     -0.565494
    115 C36        -4.4360   -1.8870   -0.9720 c3        1 MOL      0.436744
    116 C37        -4.9130   -2.9370    0.1090 c         1 MOL      0.144875
    117 O19        -5.1560   -2.6350    1.2790 o         1 MOL     -0.465252
    118 C38        -5.6280   -1.0980   -1.5400 c3        1 MOL     -0.283203
    119 C39        -6.4900   -2.0430   -2.3340 ca        1 MOL      0.062542
    120 C40        -6.3300   -2.2490   -3.7170 ca        1 MOL     -0.163384
    121 C41        -7.5930   -2.6390   -1.6560 ca        1 MOL     -0.163384
    122 C42        -7.1730   -3.0650   -4.3980 ca        1 MOL     -0.078497
    123 C43        -8.4860   -3.3740   -2.3890 ca        1 MOL     -0.078497
    124 C44        -8.2390   -3.7290   -3.7150 ca        1 MOL     -0.145847
    125 H51        -3.7680   -0.0080   -0.2900 hn        1 MOL      0.267494
    126 H52        -3.8780   -2.3750   -1.7710 h1        1 MOL      0.003327
    127 H53        -5.3140   -0.2440   -2.1470 hc        1 MOL      0.115692
    128 H54        -6.1120   -0.7010   -0.6500 hc        1 MOL      0.115692
    129 H55        -5.4940   -1.8010   -4.2340 ha        1 MOL      0.131322
    130 H56        -7.8490   -2.3740   -0.6380 ha        1 MOL      0.131322
    131 H57        -7.0240   -3.1710   -5.4620 ha        1 MOL      0.100897
    132 H58        -9.3660   -3.7440   -1.8870 ha        1 MOL      0.100897
    133 H59        -8.9420   -4.3700   -4.2250 ha        1 MOL      0.106419
    134 N12        -5.0340   -4.2760   -0.2040 n         1 MOL      0.102606
    135 C45        -5.4190   -5.4000    0.7260 c3        1 MOL     -0.078753
    136 C46        -4.4250   -5.6300    1.8770 c         1 MOL      0.366026
    137 O20        -4.8640   -5.8900    3.0050 o         1 MOL     -0.532620
    138 C47        -5.4800   -6.7010   -0.0970 c3        1 MOL      0.035554
    139 C48        -5.4620   -6.1850   -1.5380 c3        1 MOL     -0.058641
    140 C49        -4.7640   -4.8170   -1.5170 c3        1 MOL     -0.028962
    141 H60        -6.4070   -5.1650    1.1200 h1        1 MOL      0.072614
    142 H61        -4.5950   -7.3200    0.0680 hc        1 MOL      0.020217
    143 H62        -6.3670   -7.3250   -0.0300 hc        1 MOL      0.020217
    144 H63        -4.9340   -6.9470   -2.1150 hc        1 MOL      0.021283
    145 H64        -6.4710   -5.9520   -1.8920 hc        1 MOL      0.021283
    146 H65        -3.6820   -4.8680   -1.6630 h1        1 MOL      0.020597
    147 H66        -5.2820   -4.2840   -2.3140 h1        1 MOL      0.020597
    148 N13        -3.1390   -5.4030    1.6320 n         1 MOL     -0.238195
    149 C50        -1.9520   -5.3500    2.4740 c3        1 MOL     -0.182904
    150 C51        -2.1330   -4.3250    3.5820 c         1 MOL      0.442738
    151 O21        -1.3820   -4.4130    4.5810 o         1 MOL     -0.568345
    152 C52        -0.6420   -5.0860    1.7540 c3        1 MOL      0.173430
    153 C53        -0.5330   -5.7540    0.3560 c3        1 MOL     -0.215385
    154 C54         0.7820   -5.3730   -0.3860 c         1 MOL      0.711211
    155 O22         0.7270   -4.6620   -1.4690 o         1 MOL     -0.741271
    156 O23         1.9580   -5.7630   -0.0510 o         1 MOL     -0.741271
    157 H67        -2.9010   -5.2660    0.6530 hn        1 MOL      0.274460
    158 H68        -1.8860   -6.2930    3.0180 h1        1 MOL      0.122929
    159 H69         0.0960   -5.4020    2.4930 hc        1 MOL      0.012998
    160 H70        -0.4160   -4.0410    1.5340 hc        1 MOL      0.012998
    161 H71        -1.3700   -5.4480   -0.2750 hc        1 MOL      0.020686
    162 H72        -0.6370   -6.8230    0.5530 hc        1 MOL      0.020686
    163 N14        -3.0610   -3.3850    3.5080 n         1 MOL     -0.005735
    164 C55        -3.4340   -2.4660    4.6190 c3        1 MOL     -0.381938
    165 H73        -3.2740   -2.9670    5.5740 h1        1 MOL      0.130767
    166 H74        -2.8170   -1.5690    4.5720 h1        1 MOL      0.130767
    167 H75        -4.4840   -2.1910    4.5260 h1        1 MOL      0.130767
    168 H76        -3.5870   -3.3240    2.6540 hn        1 MOL      0.166053
    169 Ca1         2.8290   -3.0410   -1.4520 Ca        1 MOL      1.761802
    170 O24         1.4020   -2.2550   -3.6410 oh        1 MOL     -0.830474
    171 H77         1.2050   -2.5450   -4.5330 ho        1 MOL      0.410656
    172 H78         0.7850   -1.5400   -3.4820 ho        1 MOL      0.410656
    173 O25         3.9230   -4.7530   -3.2670 oh        1 MOL     -0.830474
    174 H79         4.0930   -5.6830   -3.3570 ho        1 MOL      0.410656
    175 H80         4.0870   -4.3970   -4.1430 ho        1 MOL      0.410656
    176 O26         4.7960   -4.5510   -0.2910 oh        1 MOL     -0.830474
    177 H81         5.6400   -4.9750   -0.3860 ho        1 MOL      0.410656
    178 H82         4.6200   -4.5650    0.6510 ho        1 MOL      0.410656
    179 O27         4.1150   -0.9150   -0.3180 oh        1 MOL     -0.830474
    180 H83         5.0620   -0.9520   -0.2170 ho        1 MOL      0.410656
    181 H84         3.8580   -0.0810    0.0770 ho        1 MOL      0.410656
@<TRIPOS>BOND
     1    1    2 1   
     2    1    4 1   
     3    1    5 1   
     4    1    6 1   
     5    2    3 2   
     6    2    7 1   
     7    7    8 1   
     8    7   15 1   
     9    8    9 1   
    10    8   11 1   
    11    8   16 1   
    12    9   10 2   
    13    9   19 1   
    14   11   12 1   
    15   11   17 1   
    16   11   18 1   
    17   12   13 1   
    18   12   14 1   
    19   19   20 1   
    20   19   24 1   
    21   20   21 1   
    22   20   23 1   
    23   20   25 1   
    24   21   22 2   
    25   21   29 1   
    26   23   26 1   
    27   23   27 1   
    28   23   28 1   
    29   29   30 1   
    30   29   37 1   
    31   30   31 1   
    32   30   33 1   
    33   30   38 1   
    34   31   32 2   
    35   31   41 1   
    36   33   34 1   
    37   33   39 1   
    38   33   40 1   
    39   34   35 1   
    40   34   36 1   
    41   41   42 1   
    42   41   45 1   
    43   42   43 1   
    44   42   46 1   
    45   42   47 1   
    46   43   44 2   
    47   43   48 1   
    48   48   49 1   
    49   48   56 1   
    50   49   50 1   
    51   49   52 1   
    52   49   57 1   
    53   50   51 2   
    54   50   62 1   
    55   52   53 1   
    56   52   58 1   
    57   52   59 1   
    58   53   54 1   
    59   53   55 2   
    60   54   60 1   
    61   54   61 1   
    62   62   63 1   
    63   62   66 1   
    64   63   64 1   
    65   63   67 1   
    66   63   68 1   
    67   64   65 2   
    68   64   69 1   
    69   69   70 1   
    70   69   76 1   
    71   70   71 1   
    72   70   73 1   
    73   70   77 1   
    74   71   72 2   
    75   71   83 1   
    76   73   74 1   
    77   73   75 1   
    78   73   78 1   
    79   74   80 1   
    80   74   81 1   
    81   74   82 1   
    82   75   79 1   
    83   83   84 1   
    84   83   91 1   
    85   84   85 1   
    86   84   87 1   
    87   84   92 1   
    88   85   86 2   
    89   85  102 1   
    90   87   88 1   
    91   87   89 1   
    92   87   93 1   
    93   88   90 1   
    94   88   94 1   
    95   88   95 1   
    96   89   96 1   
    97   89   97 1   
    98   89   98 1   
    99   90   99 1   
   100   90  100 1   
   101   90  101 1   
   102  102  103 1   
   103  102  110 1   
   104  103  104 1   
   105  103  106 1   
   106  103  111 1   
   107  104  105 2   
   108  104  114 1   
   109  106  107 1   
   110  106  112 1   
   111  106  113 1   
   112  107  108 1   
   113  107  109 1   
   114  114  115 1   
   115  114  125 1   
   116  115  116 1   
   117  115  118 1   
   118  115  126 1   
   119  116  117 2   
   120  116  134 1   
   121  118  119 1   
   122  118  127 1   
   123  118  128 1   
   124  119  120 ar  
   125  119  121 ar  
   126  120  122 ar  
   127  120  129 1   
   128  121  123 ar  
   129  121  130 1   
   130  122  124 ar  
   131  122  131 1   
   132  123  124 ar  
   133  123  132 1   
   134  124  133 1   
   135  134  135 1   
   136  134  140 1   
   137  135  136 1   
   138  135  138 1   
   139  135  141 1   
   140  136  137 2   
   141  136  148 1   
   142  138  139 1   
   143  138  142 1   
   144  138  143 1   
   145  139  140 1   
   146  139  144 1   
   147  139  145 1   
   148  140  146 1   
   149  140  147 1   
   150  148  149 1   
   151  148  157 1   
   152  149  150 1   
   153  149  152 1   
   154  149  158 1   
   155  150  151 2   
   156  150  163 1   
   157  152  153 1   
   158  152  159 1   
   159  152  160 1   
   160  153  154 1   
   161  153  161 1   
   162  153  162 1   
   163  154  155 1   
   164  154  156 1   
   165  163  164 1   
   166  163  168 1   
   167  164  165 1   
   168  164  166 1   
   169  164  167 1   
   170  170  171 1   
   171  170  172 1   
   172  173  174 1   
   173  173  175 1   
   174  176  177 1   
   175  176  178 1   
   176  179  180 1   
   177  179  181 1   
@<TRIPOS>SUBSTRUCTURE
     1 MOL         1 TEMP              0 ****  ****    0 ROOT
