@<TRIPOS>MOLECULE
MOL
  181   177     1     0     0
SMALL
resp


@<TRIPOS>ATOM
      1 C1          1.1730    6.2670   -2.0910 c3        1 MOL     -0.351560
      2 C2          2.5500    6.0330   -1.5390 c         1 MOL      0.760802
      3 O1          2.7820    6.5570   -0.4240 o         1 MOL     -0.611555
      4 H1          0.5850    6.8350   -1.3700 hc        1 MOL      0.084169
      5 H2          1.2450    6.8270   -3.0230 hc        1 MOL      0.084169
      6 H3          0.6890    5.3080   -2.2780 hc        1 MOL      0.084169
      7 N1          3.5210    5.3440   -2.1390 n         1 MOL     -0.697429
      8 C3          4.7900    4.9520   -1.5200 c3        1 MOL      0.270741
      9 C4          4.5900    3.9240   -0.4160 c         1 MOL      0.802282
     10 O2          3.7950    3.0030   -0.5530 o         1 MOL     -0.697928
     11 C5          5.8420    4.5390   -2.5570 c3        1 MOL     -0.230463
     12 C6          7.2310    4.2140   -1.9590 c         1 MOL      0.712088
     13 O3          8.1090    3.6560   -2.5770 o         1 MOL     -0.710343
     14 O4          7.3810    4.5880   -0.7680 o         1 MOL     -0.710343
     15 H4          3.3210    4.9500   -3.0540 hn        1 MOL      0.302733
     16 H5          5.2270    5.8460   -1.0740 h1        1 MOL      0.031397
     17 H6          6.0040    5.3050   -3.3230 hc        1 MOL      0.009436
     18 H7          5.5590    3.6070   -3.0440 hc        1 MOL      0.009436
     19 N2          5.1760    4.1980    0.7120 n         1 MOL     -0.722123
     20 C7          5.2180    3.4050    1.8460 c3        1 MOL      0.745786
     21 C8          3.8850    3.3910    2.5120 c         1 MOL      0.189339
     22 O5          3.0140    4.2600    2.4540 o         1 MOL     -0.508641
     23 C9          6.3660    3.9170    2.7630 c3        1 MOL     -0.220442
     24 H8          5.9260    4.8690    0.6510 hn        1 MOL      0.274178
     25 H9          5.4620    2.4170    1.4520 h1        1 MOL     -0.114359
     26 H10         7.2120    4.2270    2.1470 hc        1 MOL      0.040723
     27 H11         6.0660    4.7040    3.4400 hc        1 MOL      0.040723
     28 H12         6.6470    3.0390    3.3400 hc        1 MOL      0.040723
     29 N3          3.5780    2.3690    3.2470 n         1 MOL     -0.276616
     30 C10         4.3360    1.1210    3.4660 c3        1 MOL     -0.036018
     31 C11         4.3870    0.1120    2.2680 c         1 MOL      0.522321
     32 O6          3.4840   -0.0330    1.4260 o         1 MOL     -0.430690
     33 C12         3.8250    0.4230    4.7950 c3        1 MOL     -0.306471
     34 C13         2.3280    0.1140    4.8090 c         1 MOL      0.742301
     35 O7          1.8270   -0.3580    5.8430 o         1 MOL     -0.695918
     36 O8          1.6540    0.3340    3.7740 o         1 MOL     -0.695918
     37 H13         2.6500    2.4460    3.6400 hn        1 MOL      0.285944
     38 H14         5.3600    1.3760    3.7590 h1        1 MOL      0.052676
     39 H15         3.9390    1.1270    5.6170 hc        1 MOL      0.070210
     40 H16         4.4550   -0.4710    4.8430 hc        1 MOL      0.070210
     41 N4          5.5070   -0.6350    2.2580 n         1 MOL     -0.539268
     42 C14         5.9940   -1.4300    1.1070 c3        1 MOL     -0.049208
     43 C15         6.4470   -0.6010   -0.0240 c         1 MOL      0.492572
     44 O9          6.6610    0.5940    0.0630 o         1 MOL     -0.440217
     45 H17         6.3050   -0.4020    2.8330 hn        1 MOL      0.326137
     46 H18         5.2450   -2.1180    0.7250 h1        1 MOL      0.081357
     47 H19         6.8320   -2.0500    1.4330 h1        1 MOL      0.081357
     48 N5          6.6290   -1.2130   -1.2800 n         1 MOL     -0.433188
     49 C16         6.6450   -2.6390   -1.6700 c3        1 MOL      0.211389
     50 C17         5.4990   -3.0400   -2.5860 c         1 MOL      0.451189
     51 O10         5.4610   -4.2000   -3.0630 o         1 MOL     -0.547497
     52 C18         8.0660   -2.9340   -2.2130 c3        1 MOL     -0.312219
     53 C19         9.1890   -2.4100   -1.3050 c         1 MOL      0.722154
     54 N6         10.2150   -1.7450   -1.7710 n         1 MOL     -0.805408
     55 O11         9.0830   -2.5320   -0.1330 o         1 MOL     -0.567465
     56 H20         6.8570   -0.5850   -2.0370 hn        1 MOL      0.276069
     57 H21         6.5830   -3.2330   -0.7580 h1        1 MOL      0.078298
     58 H22         8.1230   -2.5330   -3.2300 hc        1 MOL      0.073164
     59 H23         8.1460   -4.0200   -2.2460 hc        1 MOL      0.073164
     60 H24        10.4790   -1.7380   -2.7440 hn        1 MOL      0.374128
     61 H25        10.7860   -1.2940   -1.0710 hn        1 MOL      0.374128
     62 N7          4.4110   -2.2380   -2.7110 n         1 MOL     -0.272391
     63 C20         3.2410   -2.4340   -3.5400 c3        1 MOL     -0.412160
     64 C21         2.1450   -3.2890   -2.8720 c         1 MOL      0.539182
     65 O12         1.0030   -3.1190   -3.2600 o         1 MOL     -0.537652
     66 H26         4.5160   -1.3370   -2.2630 hn        1 MOL      0.212634
     67 H27         3.5310   -3.0610   -4.3730 h1        1 MOL      0.196793
     68 H28         2.8800   -1.4320   -3.7990 h1        1 MOL      0.196793
     69 N8          2.4630   -4.1560   -1.9590 n         1 MOL     -0.315196
     70 C22         1.5140   -4.8330   -1.0210 c3        1 MOL     -0.152095
     71 C23         0.3270   -3.9310   -0.5550 c         1 MOL      0.564949
     72 O13         0.6070   -2.9050    0.0920 o         1 MOL     -0.564654
     73 C24         2.2680   -5.4420    0.1170 c3        1 MOL      0.221462
     74 C25         2.9220   -6.7460   -0.2250 c3        1 MOL     -0.360115
     75 O14         3.2330   -4.5350    0.5720 oh        1 MOL     -0.543851
     76 H29         3.4200   -4.0960   -1.6640 hn        1 MOL      0.279359
     77 H30         1.0240   -5.6810   -1.4970 h1        1 MOL      0.088734
     78 H31         1.5170   -5.5390    0.9060 h1        1 MOL      0.072376
     79 H32         2.7270   -4.0370    1.2130 ho        1 MOL      0.355202
     80 H33         3.7310   -6.5940   -0.9280 hc        1 MOL      0.107713
     81 H34         3.4420   -7.1830    0.6320 hc        1 MOL      0.107713
     82 H35         2.2980   -7.5590   -0.5920 hc        1 MOL      0.107713
     83 N9         -0.9270   -4.1520   -1.0150 n         1 MOL     -0.269910
     84 C26        -2.1280   -3.3050   -0.9650 c3        1 MOL     -0.239875
     85 C27        -2.8000   -3.6240    0.3540 c         1 MOL      0.460654
     86 O15        -2.9740   -4.7780    0.6470 o         1 MOL     -0.525590
     87 C28        -3.0330   -3.5550   -2.1850 c3        1 MOL      0.109464
     88 C29        -4.2530   -2.6160   -2.1770 c3        1 MOL      0.162398
     89 C30        -2.1230   -3.2310   -3.4270 c3        1 MOL     -0.211883
     90 C31        -5.1410   -2.6670   -3.3880 c3        1 MOL     -0.246223
     91 H36        -1.1150   -5.0330   -1.4780 hn        1 MOL      0.229039
     92 H37        -1.7120   -2.3040   -0.9680 h1        1 MOL      0.245991
     93 H38        -3.3430   -4.5990   -2.2770 hc        1 MOL      0.020247
     94 H39        -3.8140   -1.6190   -2.2240 hc        1 MOL     -0.003671
     95 H40        -4.8580   -2.6670   -1.2780 hc        1 MOL     -0.003671
     96 H41        -1.2660   -3.8710   -3.6190 hc        1 MOL      0.058440
     97 H42        -2.7010   -3.3020   -4.3520 hc        1 MOL      0.058440
     98 H43        -1.6690   -2.2520   -3.2720 hc        1 MOL      0.058440
     99 H44        -5.8620   -1.8620   -3.2530 hc        1 MOL      0.037054
    100 H45        -4.5640   -2.4630   -4.2900 hc        1 MOL      0.037054
    101 H46        -5.6380   -3.6290   -3.3780 hc        1 MOL      0.037054
    102 N10        -3.2950   -2.6030    1.0530 n         1 MOL     -0.281890
    103 C32        -3.9800   -2.6700    2.3540 c3        1 MOL      0.023188
    104 C33        -5.2400   -1.8580    2.3090 c         1 MOL      0.425617
    105 O16        -6.1400   -2.0680    3.1640 o         1 MOL     -0.586362
    106 C34        -3.0850   -2.3070    3.5720 c3        1 MOL     -0.012782
    107 C35        -1.5800   -2.6670    3.3860 c         1 MOL      0.746261
    108 O17        -1.3830   -3.9030    3.5690 o         1 MOL     -0.717984
    109 O18        -0.7420   -1.7960    3.1810 o         1 MOL     -0.717984
    110 H47        -3.1720   -1.7080    0.5980 hn        1 MOL      0.105942
    111 H48        -4.3370   -3.6960    2.4390 h1        1 MOL      0.100239
    112 H49        -3.4000   -2.8330    4.4730 hc        1 MOL     -0.009843
    113 H50        -3.2160   -1.2440    3.7610 hc        1 MOL     -0.009843
    114 N11        -5.5520   -1.0330    1.3260 n         1 MOL     -0.247812
    115 C36        -6.7460   -0.2200    1.1840 c3        1 MOL      0.218551
    116 C37        -6.5160    1.1650    0.5980 c         1 MOL      0.277140
    117 O19        -7.0240    1.3650   -0.5280 o         1 MOL     -0.409275
    118 C38        -7.8490   -1.0960    0.4310 c3        1 MOL     -0.240498
    119 C39        -9.2320   -0.5440    0.2360 ca        1 MOL      0.072204
    120 C40        -9.9880   -0.8610   -0.9580 ca        1 MOL     -0.115249
    121 C41        -9.6860    0.4840    1.0710 ca        1 MOL     -0.115249
    122 C42       -11.2620   -0.2510   -1.1470 ca        1 MOL     -0.154676
    123 C43       -10.8690    1.2030    0.7880 ca        1 MOL     -0.154676
    124 C44       -11.7180    0.7380   -0.2130 ca        1 MOL     -0.113214
    125 H51        -4.8960   -0.9760    0.5570 hn        1 MOL      0.204533
    126 H52        -7.1060   -0.0650    2.1980 h1        1 MOL      0.044990
    127 H53        -7.9420   -2.0230    1.0040 hc        1 MOL      0.097214
    128 H54        -7.5100   -1.5890   -0.4740 hc        1 MOL      0.097214
    129 H55        -9.6240   -1.6360   -1.6200 ha        1 MOL      0.097566
    130 H56        -9.0600    0.8390    1.8850 ha        1 MOL      0.097566
    131 H57       -11.7520   -0.3930   -2.1040 ha        1 MOL      0.116887
    132 H58       -11.0950    2.0720    1.3900 ha        1 MOL      0.116887
    133 H59       -12.6210    1.2560   -0.4890 ha        1 MOL      0.092406
    134 N12        -5.6190    1.9910    1.2580 n         1 MOL     -0.030869
    135 C45        -5.3960    3.3480    0.7830 c3        1 MOL     -0.092935
    136 C46        -4.9280    3.5670   -0.7080 c         1 MOL      0.197167
    137 O20        -5.3310    4.5800   -1.2010 o         1 MOL     -0.456689
    138 C47        -4.3140    3.9770    1.6700 c3        1 MOL      0.131358
    139 C48        -4.3620    3.1970    2.9890 c3        1 MOL     -0.267764
    140 C49        -4.8860    1.8280    2.4770 c3        1 MOL      0.046823
    141 H60        -6.3460    3.8680    0.9480 h1        1 MOL      0.084076
    142 H61        -3.3390    3.8130    1.2090 hc        1 MOL      0.011571
    143 H62        -4.5530    5.0120    1.8750 hc        1 MOL      0.011571
    144 H63        -3.4290    3.0020    3.5070 hc        1 MOL      0.093395
    145 H64        -5.1090    3.7100    3.5890 hc        1 MOL      0.093395
    146 H65        -4.0440    1.1700    2.3030 h1        1 MOL      0.016818
    147 H66        -5.5560    1.3900    3.2160 h1        1 MOL      0.016818
    148 N13        -4.2470    2.5890   -1.2390 n         1 MOL      0.063106
    149 C50        -3.8470    2.5140   -2.6100 c3        1 MOL     -0.270872
    150 C51        -5.1440    2.6130   -3.5250 c         1 MOL      0.460098
    151 O21        -5.1140    3.4510   -4.4690 o         1 MOL     -0.541270
    152 C52        -3.0690    1.1860   -2.9670 c3        1 MOL      0.148089
    153 C53        -1.9390    0.6620   -2.0900 c3        1 MOL     -0.248023
    154 C54        -2.1880    0.2880   -0.6620 c         1 MOL      0.761564
    155 O22        -1.2000   -0.0620    0.0350 o         1 MOL     -0.775457
    156 O23        -3.3250    0.1180   -0.2250 o         1 MOL     -0.775457
    157 H67        -4.1620    1.7830   -0.6230 hn        1 MOL      0.193048
    158 H68        -3.2500    3.3800   -2.8800 h1        1 MOL      0.133228
    159 H69        -2.6210    1.3030   -3.9560 hc        1 MOL     -0.008257
    160 H70        -3.7820    0.3860   -3.1490 hc        1 MOL     -0.008257
    161 H71        -1.2950    1.5380   -2.0270 hc        1 MOL      0.060034
    162 H72        -1.4080   -0.1580   -2.5770 hc        1 MOL      0.060034
    163 N14        -6.2320    1.8310   -3.2550 n         1 MOL     -0.165003
    164 C55        -7.4430    1.8200   -4.1250 c3        1 MOL     -0.189528
    165 H73        -8.2240    2.4280   -3.6670 h1        1 MOL      0.088288
    166 H74        -7.1920    2.2290   -5.1040 h1        1 MOL      0.088288
    167 H75        -7.8010    0.7970   -4.2380 h1        1 MOL      0.088288
    168 H76        -6.1370    1.3410   -2.3670 hn        1 MOL      0.168179
    169 Ca1         0.7810   -0.5910    1.4200 Ca        1 MOL      1.744816
    170 O24         2.3870   -2.5410    2.5970 oh        1 MOL     -0.872788
    171 O25         1.4770    1.9010    0.9100 oh        1 MOL     -0.872788
    172 H77         3.3250   -2.7020    2.7170 ho        1 MOL      0.434760
    173 H78         1.2270    2.7780    1.2240 ho        1 MOL      0.434760
    174 H79         1.9780   -2.9780    3.3470 ho        1 MOL      0.434760
    175 H80         2.2540    2.0490    0.3760 ho        1 MOL      0.434760
    176 O26         1.7160   -0.4010   -1.2190 oh        1 MOL     -0.872788
    177 H81         1.3400   -0.7430   -2.0270 ho        1 MOL      0.434760
    178 H82         2.4910    0.0740   -1.4860 ho        1 MOL      0.434760
    179 O27        -1.4560    1.2260    2.1670 oh        1 MOL     -0.872788
    180 H83        -1.7530    0.8240    1.3530 ho        1 MOL      0.434760
    181 H84        -2.2570    1.3810    2.6690 ho        1 MOL      0.434760
@<TRIPOS>BOND
     1    1    2 1   
     2    1    4 1   
     3    1    5 1   
     4    1    6 1   
     5    2    3 2   
     6    2    7 1   
     7    7    8 1   
     8    7   15 1   
     9    8    9 1   
    10    8   11 1   
    11    8   16 1   
    12    9   10 2   
    13    9   19 1   
    14   11   12 1   
    15   11   17 1   
    16   11   18 1   
    17   12   13 1   
    18   12   14 1   
    19   19   20 1   
    20   19   24 1   
    21   20   21 1   
    22   20   23 1   
    23   20   25 1   
    24   21   22 2   
    25   21   29 1   
    26   23   26 1   
    27   23   27 1   
    28   23   28 1   
    29   29   30 1   
    30   29   37 1   
    31   30   31 1   
    32   30   33 1   
    33   30   38 1   
    34   31   32 2   
    35   31   41 1   
    36   33   34 1   
    37   33   39 1   
    38   33   40 1   
    39   34   35 1   
    40   34   36 1   
    41   41   42 1   
    42   41   45 1   
    43   42   43 1   
    44   42   46 1   
    45   42   47 1   
    46   43   44 2   
    47   43   48 1   
    48   48   49 1   
    49   48   56 1   
    50   49   50 1   
    51   49   52 1   
    52   49   57 1   
    53   50   51 2   
    54   50   62 1   
    55   52   53 1   
    56   52   58 1   
    57   52   59 1   
    58   53   54 1   
    59   53   55 2   
    60   54   60 1   
    61   54   61 1   
    62   62   63 1   
    63   62   66 1   
    64   63   64 1   
    65   63   67 1   
    66   63   68 1   
    67   64   65 2   
    68   64   69 1   
    69   69   70 1   
    70   69   76 1   
    71   70   71 1   
    72   70   73 1   
    73   70   77 1   
    74   71   72 2   
    75   71   83 1   
    76   73   74 1   
    77   73   75 1   
    78   73   78 1   
    79   74   80 1   
    80   74   81 1   
    81   74   82 1   
    82   75   79 1   
    83   83   84 1   
    84   83   91 1   
    85   84   85 1   
    86   84   87 1   
    87   84   92 1   
    88   85   86 2   
    89   85  102 1   
    90   87   88 1   
    91   87   89 1   
    92   87   93 1   
    93   88   90 1   
    94   88   94 1   
    95   88   95 1   
    96   89   96 1   
    97   89   97 1   
    98   89   98 1   
    99   90   99 1   
   100   90  100 1   
   101   90  101 1   
   102  102  103 1   
   103  102  110 1   
   104  103  104 1   
   105  103  106 1   
   106  103  111 1   
   107  104  105 2   
   108  104  114 1   
   109  106  107 1   
   110  106  112 1   
   111  106  113 1   
   112  107  108 1   
   113  107  109 1   
   114  114  115 1   
   115  114  125 1   
   116  115  116 1   
   117  115  118 1   
   118  115  126 1   
   119  116  117 2   
   120  116  134 1   
   121  118  119 1   
   122  118  127 1   
   123  118  128 1   
   124  119  120 ar  
   125  119  121 ar  
   126  120  122 ar  
   127  120  129 1   
   128  121  123 ar  
   129  121  130 1   
   130  122  124 ar  
   131  122  131 1   
   132  123  124 ar  
   133  123  132 1   
   134  124  133 1   
   135  134  135 1   
   136  134  140 1   
   137  135  136 1   
   138  135  138 1   
   139  135  141 1   
   140  136  137 2   
   141  136  148 1   
   142  138  139 1   
   143  138  142 1   
   144  138  143 1   
   145  139  140 1   
   146  139  144 1   
   147  139  145 1   
   148  140  146 1   
   149  140  147 1   
   150  148  149 1   
   151  148  157 1   
   152  149  150 1   
   153  149  152 1   
   154  149  158 1   
   155  150  151 2   
   156  150  163 1   
   157  152  153 1   
   158  152  159 1   
   159  152  160 1   
   160  153  154 1   
   161  153  161 1   
   162  153  162 1   
   163  154  155 1   
   164  154  156 1   
   165  163  164 1   
   166  163  168 1   
   167  164  165 1   
   168  164  166 1   
   169  164  167 1   
   170  170  172 1   
   171  170  174 1   
   172  171  173 1   
   173  171  175 1   
   174  176  177 1   
   175  176  178 1   
   176  179  180 1   
   177  179  181 1   
@<TRIPOS>SUBSTRUCTURE
     1 MOL         1 TEMP              0 ****  ****    0 ROOT
