@<TRIPOS>MOLECULE
MOL
  192   187     1     0     0
SMALL
resp


@<TRIPOS>ATOM
      1 C1        -11.0960   -6.1830   -3.1520 c3        1 MOL     -0.359945
      2 C2        -11.0850   -4.7320   -2.5570 c         1 MOL      0.644711
      3 O1        -11.3870   -3.7530   -3.2810 o         1 MOL     -0.573178
      4 H1        -10.5140   -6.8430   -2.5090 hc        1 MOL      0.099202
      5 H2        -12.1220   -6.5450   -3.2080 hc        1 MOL      0.099202
      6 H3        -10.6580   -6.1700   -4.1500 hc        1 MOL      0.099202
      7 N1        -10.8420   -4.5880   -1.2190 n         1 MOL     -0.291466
      8 C3        -10.7240   -3.2610   -0.5510 c3        1 MOL     -0.528782
      9 C4         -9.3360   -2.5900   -0.6580 c         1 MOL      0.701948
     10 O2         -8.2570   -3.0620   -0.3230 o         1 MOL     -0.713042
     11 C5        -11.3510   -3.4340    0.8720 c3        1 MOL      0.174313
     12 C6        -10.6520   -4.3760    1.8290 c         1 MOL      0.606569
     13 O3         -9.4760   -4.8030    1.6000 o         1 MOL     -0.683202
     14 O4        -11.2920   -4.6830    2.9120 o         1 MOL     -0.683202
     15 H4        -10.6920   -5.3980   -0.6320 hn        1 MOL      0.196882
     16 H5        -11.4400   -2.5810   -1.0220 h1        1 MOL      0.179986
     17 H6        -12.3700   -3.7930    0.7280 hc        1 MOL      0.026368
     18 H7        -11.4860   -2.4430    1.3100 hc        1 MOL      0.026368
     19 N2         -9.3250   -1.3460   -1.0790 n         1 MOL     -0.322371
     20 C7         -8.2150   -0.4610   -1.3210 c3        1 MOL     -0.048567
     21 C8         -7.4840    0.0670   -0.0810 c         1 MOL      0.639545
     22 O5         -8.0150    1.0090    0.5310 o         1 MOL     -0.606148
     23 C9         -8.5850    0.6730   -2.2820 c3        1 MOL     -0.238032
     24 C10        -7.3130    1.3890   -2.8340 c3        1 MOL      0.080479
     25 C11        -7.5360    2.8040   -3.2990 c3        1 MOL     -0.049290
     26 C12        -8.1490    3.7950   -2.2780 c3        1 MOL      0.069756
     27 N3         -8.0740    5.2160   -2.8200 n4        1 MOL     -0.316576
     28 H8        -10.2410   -0.9050   -1.0930 hn        1 MOL      0.255057
     29 H9         -7.4440   -1.0160   -1.8490 h1        1 MOL      0.093099
     30 H10        -9.2850    1.3750   -1.8290 hc        1 MOL      0.093944
     31 H11        -9.1500    0.2990   -3.1370 hc        1 MOL      0.093944
     32 H12        -6.7770    0.7690   -3.5460 hc        1 MOL      0.004594
     33 H13        -6.6480    1.4780   -1.9730 hc        1 MOL      0.004594
     34 H14        -8.2640    2.9340   -4.0950 hc        1 MOL      0.016230
     35 H15        -6.6030    3.2290   -3.6780 hc        1 MOL      0.016230
     36 H16        -7.5610    3.7130   -1.3610 hx        1 MOL      0.075543
     37 H17        -9.1700    3.4680   -2.0900 hx        1 MOL      0.075543
     38 H18        -8.5280    5.2080   -3.7210 hn        1 MOL      0.292946
     39 H19        -8.6530    5.8390   -2.2820 hn        1 MOL      0.292946
     40 H20        -7.0960    5.4670   -2.9350 hn        1 MOL      0.292946
     41 N4         -6.2210   -0.3470    0.1500 n         1 MOL     -0.077257
     42 C13        -5.4130    0.1950    1.2460 c3        1 MOL     -0.016034
     43 C14        -3.9600   -0.0470    0.9240 c         1 MOL      0.180126
     44 O6         -3.6530   -1.0260    0.1560 o         1 MOL     -0.471196
     45 C15        -5.8210   -0.5960    2.5080 c3        1 MOL      0.255022
     46 C16        -6.0950   -2.0480    2.3770 c         1 MOL      0.485782
     47 O7         -7.2630   -2.3400    2.2600 o         1 MOL     -0.682206
     48 O8         -5.1530   -2.9090    2.4800 o         1 MOL     -0.682206
     49 H21        -5.7980   -0.9760   -0.5130 hn        1 MOL      0.084295
     50 H22        -5.6390    1.2360    1.4750 h1        1 MOL      0.055227
     51 H23        -6.6990   -0.0860    2.8960 hc        1 MOL     -0.034257
     52 H24        -5.0460   -0.4550    3.2600 hc        1 MOL     -0.034257
     53 N5         -3.0280    0.6620    1.5130 n         1 MOL     -0.068128
     54 C17        -3.1090    1.6480    2.6170 c3        1 MOL     -0.241637
     55 C18        -3.3100    3.0800    2.2090 c         1 MOL      0.713345
     56 O9         -3.8820    3.3460    1.1520 o         1 MOL     -0.563640
     57 H25        -2.0850    0.3450    1.3000 hn        1 MOL      0.252187
     58 H26        -2.1380    1.5780    3.1000 h1        1 MOL      0.101623
     59 H27        -3.9260    1.4460    3.3020 h1        1 MOL      0.101623
     60 N6         -2.9800    4.0110    3.1130 n         1 MOL     -0.414373
     61 C19        -3.2190    5.4610    2.9010 c3        1 MOL     -0.136355
     62 C20        -2.2090    5.9500    1.8400 c         1 MOL      0.369925
     63 O10        -0.9620    5.8280    2.1060 o         1 MOL     -0.467083
     64 C21        -3.1780    6.2870    4.2100 c3        1 MOL     -0.046091
     65 C22        -3.5660    7.7450    3.9150 c         1 MOL      0.670468
     66 O11        -2.7700    8.5100    3.3800 o         1 MOL     -0.670421
     67 O12        -4.6770    8.1070    4.3250 o         1 MOL     -0.670421
     68 H28        -2.5900    3.7370    4.0080 hn        1 MOL      0.282767
     69 H29        -4.2750    5.5640    2.6290 h1        1 MOL      0.082923
     70 H30        -2.1870    6.3170    4.6590 hc        1 MOL      0.033349
     71 H31        -3.8260    5.9590    5.0170 hc        1 MOL      0.033349
     72 N7         -2.5910    6.4340    0.6470 n         1 MOL     -0.176051
     73 C23        -1.7110    6.7050   -0.5000 c3        1 MOL     -0.146982
     74 C24        -1.0450    5.3840   -1.1100 c         1 MOL      0.535086
     75 O13        -0.3410    5.5300   -2.0770 o         1 MOL     -0.545449
     76 H32        -3.5520    6.6920    0.4790 hn        1 MOL      0.238027
     77 H33        -0.8840    7.3800   -0.3010 h1        1 MOL      0.102862
     78 H34        -2.3460    7.1490   -1.2760 h1        1 MOL      0.102862
     79 N8         -1.4720    4.1600   -0.6860 n         1 MOL     -0.218192
     80 C25        -1.2400    2.9070   -1.5330 c3        1 MOL      0.135259
     81 C26        -0.3770    1.8950   -0.9200 c         1 MOL      0.313613
     82 O14        -0.1970    1.7850    0.3020 o         1 MOL     -0.517400
     83 C27        -2.6080    2.3270   -1.8220 c3        1 MOL      0.360894
     84 C28        -3.5870    3.3340   -2.4430 c3        1 MOL     -0.594763
     85 O15        -2.4360    1.2320   -2.7270 oh        1 MOL     -0.634120
     86 H35        -2.0860    4.1240    0.1090 hn        1 MOL      0.025216
     87 H36        -0.8510    3.1430   -2.5300 h1        1 MOL      0.074755
     88 H37        -3.0580    1.9140   -0.9170 h1        1 MOL      0.008372
     89 H38        -3.2420    0.7150   -2.7940 ho        1 MOL      0.391810
     90 H39        -3.2580    3.6080   -3.4470 hc        1 MOL      0.144894
     91 H40        -4.5660    2.9060   -2.6430 hc        1 MOL      0.144894
     92 H41        -3.7020    4.1660   -1.7500 hc        1 MOL      0.144894
     93 N9          0.3000    0.9590   -1.6280 n         1 MOL     -0.089482
     94 C29         0.9310   -0.2320   -1.0130 c3        1 MOL     -0.298462
     95 C30         2.4850   -0.1500   -0.8030 c         1 MOL      0.587676
     96 O16         3.0300   -0.9700   -0.1000 o         1 MOL     -0.559582
     97 C31         0.5550   -1.5930   -1.6780 c3        1 MOL      0.171166
     98 C32         1.0150   -1.7130   -3.1490 c3        1 MOL      0.130161
     99 C33        -0.8600   -2.0300   -1.4540 c3        1 MOL     -0.086603
    100 C34         1.5190   -3.1230   -3.4310 c3        1 MOL     -0.346146
    101 H42         0.2800    0.9610   -2.6390 hn        1 MOL      0.178500
    102 H43         0.5600   -0.3170    0.0100 h1        1 MOL      0.157735
    103 H44         1.1880   -2.3210   -1.1590 hc        1 MOL      0.013698
    104 H45         1.8240   -0.9900   -3.2740 hc        1 MOL     -0.019594
    105 H46         0.2530   -1.4800   -3.8900 hc        1 MOL     -0.019594
    106 H47        -1.0870   -3.0530   -1.7400 hc        1 MOL      0.004426
    107 H48        -1.1670   -2.0890   -0.4070 hc        1 MOL      0.004426
    108 H49        -1.4820   -1.3220   -1.9920 hc        1 MOL      0.004426
    109 H50         0.8620   -3.8560   -2.9660 hc        1 MOL      0.082885
    110 H51         1.7440   -3.3210   -4.4800 hc        1 MOL      0.082885
    111 H52         2.4290   -3.3320   -2.8710 hc        1 MOL      0.082885
    112 N10         3.0190    1.0010   -1.0930 n         1 MOL     -0.440480
    113 C35         4.3110    1.5460   -0.5160 c3        1 MOL     -0.020829
    114 C36         5.3270    1.9490   -1.6120 c         1 MOL      0.702271
    115 O17         4.8940    2.3550   -2.6830 o         1 MOL     -0.519568
    116 C37         3.9060    2.6900    0.3970 c3        1 MOL      0.442693
    117 C38         5.1830    3.4190    0.8680 c3        1 MOL     -0.382440
    118 O18         2.9330    3.5630   -0.1930 oh        1 MOL     -0.563837
    119 H53         2.3740    1.6810   -1.4670 hn        1 MOL      0.216402
    120 H54         4.6860    0.8120    0.1970 h1        1 MOL      0.064202
    121 H55         3.5230    2.4290    1.3820 h1        1 MOL      0.002432
    122 H56         2.4460    3.8290    0.5980 ho        1 MOL      0.379561
    123 H57         4.9190    4.0890    1.6820 hc        1 MOL      0.081003
    124 H58         5.8880    2.6690    1.2300 hc        1 MOL      0.081003
    125 H59         5.6510    4.0110    0.0790 hc        1 MOL      0.081003
    126 N11         6.6190    1.7750   -1.3180 n         1 MOL     -0.632282
    127 C39         7.7130    2.0230   -2.2560 c3        1 MOL      0.006865
    128 C40         9.0130    1.1390   -2.2590 c         1 MOL      0.644241
    129 O19         9.4610    0.8430   -3.3710 o         1 MOL     -0.564831
    130 C41         8.2140    3.4510   -2.0060 c3        1 MOL      0.169277
    131 C42         9.2750    3.9880   -2.9950 c3        1 MOL     -0.386689
    132 O20         8.7910    3.5360   -0.7460 oh        1 MOL     -0.605629
    133 H60         6.8680    1.2920   -0.4690 hn        1 MOL      0.323286
    134 H61         7.2630    1.9910   -3.2540 h1        1 MOL      0.116394
    135 H62         7.3640    4.1420   -2.0480 h1        1 MOL      0.083965
    136 H63         8.7730    4.4220   -0.3700 ho        1 MOL      0.410382
    137 H64         9.3900    5.0720   -2.8860 hc        1 MOL      0.108585
    138 H65        10.2160    3.4650   -2.8310 hc        1 MOL      0.108585
    139 H66         8.9910    3.9030   -4.0410 hc        1 MOL      0.108585
    140 N12         9.3680    0.4240   -1.1800 n         1 MOL     -0.416953
    141 C43        10.4500   -0.6140   -0.9970 c3        1 MOL      0.070886
    142 C44        10.0490   -1.6670    0.0140 c         1 MOL      0.374767
    143 O21         9.3000   -1.3730    0.9610 o         1 MOL     -0.462279
    144 C45        11.8000    0.0540   -0.6660 c3        1 MOL     -0.182101
    145 C46        11.8630    0.6900    0.7660 c3        1 MOL     -0.030244
    146 C47        13.2500    1.3810    0.9990 c3        1 MOL      0.078343
    147 C48        13.3880    1.8740    2.4100 c3        1 MOL      0.041152
    148 N13        14.8380    1.9110    2.8360 n4        1 MOL     -0.227105
    149 H67         8.7770    0.6530   -0.3950 hn        1 MOL      0.250529
    150 H68        10.5750   -1.1980   -1.9200 h1        1 MOL      0.088572
    151 H69        12.1260    0.6660   -1.5090 hc        1 MOL      0.076071
    152 H70        12.5360   -0.7440   -0.7530 hc        1 MOL      0.076071
    153 H71        11.7310   -0.1320    1.4820 hc        1 MOL      0.048465
    154 H72        11.0790    1.4360    0.8390 hc        1 MOL      0.048465
    155 H73        13.4010    2.1940    0.2910 hc        1 MOL      0.001685
    156 H74        14.0040    0.6060    0.8540 hc        1 MOL      0.001685
    157 H75        12.8650    1.1780    3.0740 hx        1 MOL      0.069425
    158 H76        12.9500    2.8650    2.5130 hx        1 MOL      0.069425
    159 H77        15.1630    0.9800    3.0540 hn        1 MOL      0.242220
    160 H78        15.5020    2.2920    2.1770 hn        1 MOL      0.242220
    161 H79        15.0190    2.5910    3.5620 hn        1 MOL      0.242220
    162 N14        10.6370   -2.9130   -0.2230 n         1 MOL     -0.364800
    163 C49        10.6430   -3.9300    0.7300 c3        1 MOL      0.101708
    164 C50         9.2460   -4.2180    1.2640 c         1 MOL      0.399367
    165 O22         9.0840   -4.1320    2.4760 o         1 MOL     -0.543641
    166 C51        11.4460   -5.1180    0.0850 c3        1 MOL     -0.061334
    167 C52        11.6880   -6.0000    1.2960 c3        1 MOL     -0.055468
    168 C53        12.8090   -7.0940    1.1170 c         1 MOL      0.631888
    169 O23        14.0710   -6.7260    1.1000 o         1 MOL     -0.650119
    170 O24        12.3960   -8.2320    0.8530 o         1 MOL     -0.650119
    171 H80        11.2960   -2.9420   -0.9960 hn        1 MOL      0.244387
    172 H81        11.1940   -3.5020    1.5660 h1        1 MOL      0.086842
    173 H82        12.4320   -4.8050   -0.2540 hc        1 MOL      0.029602
    174 H83        10.8470   -5.5880   -0.7010 hc        1 MOL      0.029602
    175 H84        10.7330   -6.4320    1.5820 hc        1 MOL     -0.002467
    176 H85        12.0420   -5.3990    2.1330 hc        1 MOL     -0.002467
    177 N15         8.1610   -4.4010    0.5280 n         1 MOL     -0.292329
    178 C54         8.1070   -4.8200   -0.8680 c3        1 MOL      0.035042
    179 H86         8.0200   -5.9050   -0.9190 h1        1 MOL      0.035150
    180 H87         7.2440   -4.3640   -1.3520 h1        1 MOL      0.035150
    181 H88         9.0180   -4.5050   -1.3780 h1        1 MOL      0.035150
    182 H89         7.3340   -4.4850    1.1110 hn        1 MOL      0.273773
    183 Ca1        -6.9690   -4.7700    1.2950 Ca        1 MOL      1.766171
    184 O25        -6.9210   -6.0870    3.5380 oh        1 MOL     -0.876292
    185 H90        -7.4160   -6.8300    3.8950 ho        1 MOL      0.432239
    186 H91        -6.1900   -5.9830    4.1470 ho        1 MOL      0.432239
    187 O26        -4.5920   -6.0330    1.4990 oh        1 MOL     -0.876292
    188 H92        -4.2990   -6.9320    1.3710 ho        1 MOL      0.432239
    189 H93        -4.0570   -5.7080    2.2270 ho        1 MOL      0.432239
    190 O27        -5.0970   -3.3910   -0.3970 oh        1 MOL     -0.876292
    191 H94        -5.0690   -3.7920   -1.2620 ho        1 MOL      0.432239
    192 H95        -4.4900   -2.6490   -0.4530 ho        1 MOL      0.432239
@<TRIPOS>BOND
     1    1    2 1   
     2    1    4 1   
     3    1    5 1   
     4    1    6 1   
     5    2    3 2   
     6    2    7 1   
     7    7    8 1   
     8    7   15 1   
     9    8    9 1   
    10    8   11 1   
    11    8   16 1   
    12    9   10 2   
    13    9   19 1   
    14   11   12 1   
    15   11   17 1   
    16   11   18 1   
    17   12   13 1   
    18   12   14 1   
    19   19   20 1   
    20   19   28 1   
    21   20   21 1   
    22   20   23 1   
    23   20   29 1   
    24   21   22 2   
    25   21   41 1   
    26   23   24 1   
    27   23   30 1   
    28   23   31 1   
    29   24   25 1   
    30   24   32 1   
    31   24   33 1   
    32   25   26 1   
    33   25   34 1   
    34   25   35 1   
    35   26   27 1   
    36   26   36 1   
    37   26   37 1   
    38   27   38 1   
    39   27   39 1   
    40   27   40 1   
    41   41   42 1   
    42   41   49 1   
    43   42   43 1   
    44   42   45 1   
    45   42   50 1   
    46   43   44 2   
    47   43   53 1   
    48   45   46 1   
    49   45   51 1   
    50   45   52 1   
    51   46   47 1   
    52   46   48 1   
    53   53   54 1   
    54   53   57 1   
    55   54   55 1   
    56   54   58 1   
    57   54   59 1   
    58   55   56 2   
    59   55   60 1   
    60   60   61 1   
    61   60   68 1   
    62   61   62 1   
    63   61   64 1   
    64   61   69 1   
    65   62   63 2   
    66   62   72 1   
    67   64   65 1   
    68   64   70 1   
    69   64   71 1   
    70   65   66 1   
    71   65   67 1   
    72   72   73 1   
    73   72   76 1   
    74   73   74 1   
    75   73   77 1   
    76   73   78 1   
    77   74   75 2   
    78   74   79 1   
    79   79   80 1   
    80   79   86 1   
    81   80   81 1   
    82   80   83 1   
    83   80   87 1   
    84   81   82 2   
    85   81   93 1   
    86   83   84 1   
    87   83   85 1   
    88   83   88 1   
    89   84   90 1   
    90   84   91 1   
    91   84   92 1   
    92   85   89 1   
    93   93   94 1   
    94   93  101 1   
    95   94   95 1   
    96   94   97 1   
    97   94  102 1   
    98   95   96 2   
    99   95  112 1   
   100   97   98 1   
   101   97   99 1   
   102   97  103 1   
   103   98  100 1   
   104   98  104 1   
   105   98  105 1   
   106   99  106 1   
   107   99  107 1   
   108   99  108 1   
   109  100  109 1   
   110  100  110 1   
   111  100  111 1   
   112  112  113 1   
   113  112  119 1   
   114  113  114 1   
   115  113  116 1   
   116  113  120 1   
   117  114  115 2   
   118  114  126 1   
   119  116  117 1   
   120  116  118 1   
   121  116  121 1   
   122  117  123 1   
   123  117  124 1   
   124  117  125 1   
   125  118  122 1   
   126  126  127 1   
   127  126  133 1   
   128  127  128 1   
   129  127  130 1   
   130  127  134 1   
   131  128  129 2   
   132  128  140 1   
   133  130  131 1   
   134  130  132 1   
   135  130  135 1   
   136  131  137 1   
   137  131  138 1   
   138  131  139 1   
   139  132  136 1   
   140  140  141 1   
   141  140  149 1   
   142  141  142 1   
   143  141  144 1   
   144  141  150 1   
   145  142  143 2   
   146  142  162 1   
   147  144  145 1   
   148  144  151 1   
   149  144  152 1   
   150  145  146 1   
   151  145  153 1   
   152  145  154 1   
   153  146  147 1   
   154  146  155 1   
   155  146  156 1   
   156  147  148 1   
   157  147  157 1   
   158  147  158 1   
   159  148  159 1   
   160  148  160 1   
   161  148  161 1   
   162  162  163 1   
   163  162  171 1   
   164  163  164 1   
   165  163  166 1   
   166  163  172 1   
   167  164  165 2   
   168  164  177 1   
   169  166  167 1   
   170  166  173 1   
   171  166  174 1   
   172  167  168 1   
   173  167  175 1   
   174  167  176 1   
   175  168  169 1   
   176  168  170 1   
   177  177  178 1   
   178  177  182 1   
   179  178  179 1   
   180  178  180 1   
   181  178  181 1   
   182  184  185 1   
   183  184  186 1   
   184  187  188 1   
   185  187  189 1   
   186  190  191 1   
   187  190  192 1   
@<TRIPOS>SUBSTRUCTURE
     1 MOL         1 TEMP              0 ****  ****    0 ROOT
