@<TRIPOS>MOLECULE
MOL
  181   177     1     0     0
SMALL
resp


@<TRIPOS>ATOM
      1 C1          2.5930   -2.5860    4.2710 c3        1 MOL     -0.454053
      2 C2          3.5660   -1.7340    3.4750 c         1 MOL      0.596573
      3 O1          3.5560   -1.6330    2.2510 o         1 MOL     -0.519276
      4 H1          2.8980   -2.6020    5.3180 hc        1 MOL      0.123376
      5 H2          1.5910   -2.1640    4.1920 hc        1 MOL      0.123376
      6 H3          2.5930   -3.6020    3.8780 hc        1 MOL      0.123376
      7 N1          4.5380   -1.2010    4.1780 n         1 MOL     -0.313943
      8 C3          5.5260   -0.3090    3.5300 c3        1 MOL     -0.124848
      9 C4          6.5330   -0.9570    2.6010 c         1 MOL      0.546737
     10 O2          6.9400   -0.3790    1.6060 o         1 MOL     -0.397638
     11 C5          6.3210    0.4890    4.6280 c3        1 MOL     -0.046724
     12 C6          7.0270    1.7490    4.0830 c         1 MOL      0.623019
     13 O3          6.3180    2.7390    3.6450 o         1 MOL     -0.685698
     14 O4          8.2600    1.7100    3.9560 o         1 MOL     -0.685698
     15 H4          4.4750   -1.3380    5.1780 hn        1 MOL      0.242450
     16 H5          4.9360    0.4700    3.0290 h1        1 MOL      0.090322
     17 H6          7.1390   -0.0520    5.1220 hc        1 MOL     -0.030404
     18 H7          5.7020    0.8810    5.4290 hc        1 MOL     -0.030404
     19 N2          6.7080   -2.2470    2.8340 n         1 MOL     -0.335443
     20 C7          7.3740   -3.2300    1.9850 c3        1 MOL      0.233824
     21 C8          6.7340   -3.3610    0.5280 c         1 MOL      0.364953
     22 O5          7.3480   -3.8100   -0.4330 o         1 MOL     -0.500129
     23 C9          8.8610   -3.1400    2.2260 c3        1 MOL     -0.340712
     24 H8          6.3050   -2.6600    3.6670 hn        1 MOL      0.192171
     25 H9          7.0860   -4.1820    2.4320 h1        1 MOL      0.022108
     26 H10         9.0750   -2.0930    2.0440 hc        1 MOL      0.086353
     27 H11         9.0460   -3.2500    3.2960 hc        1 MOL      0.086353
     28 H12         9.4250   -3.8370    1.6020 hc        1 MOL      0.086353
     29 N3          5.5030   -2.8340    0.4180 n         1 MOL     -0.573920
     30 C10         4.8490   -2.6230   -0.9460 c3        1 MOL      0.741360
     31 C11         5.5760   -1.6580   -1.9420 c         1 MOL      0.192563
     32 O6          5.5930   -1.7700   -3.1560 o         1 MOL     -0.410208
     33 C12         4.3850   -3.9580   -1.5530 c3        1 MOL     -0.424994
     34 C13         3.3710   -3.7650   -2.6880 c         1 MOL      0.584922
     35 O7          2.2560   -3.2060   -2.3860 o         1 MOL     -0.625500
     36 O8          3.5860   -4.1440   -3.8530 o         1 MOL     -0.625500
     37 H13         5.0220   -2.5060    1.2510 hn        1 MOL      0.239430
     38 H14         3.8830   -2.2120   -0.6410 h1        1 MOL     -0.193270
     39 H15         4.0380   -4.6580   -0.7930 hc        1 MOL      0.094742
     40 H16         5.2280   -4.4290   -2.0520 hc        1 MOL      0.094742
     41 N4          6.2130   -0.6660   -1.3220 n         1 MOL      0.007987
     42 C14         6.8570    0.4130   -1.9870 c3        1 MOL     -0.305451
     43 C15         5.9770    1.5920   -2.4730 c         1 MOL      0.630155
     44 O9          6.4020    2.4750   -3.2510 o         1 MOL     -0.582091
     45 H17         6.2690   -0.6360   -0.3100 hn        1 MOL      0.076355
     46 H18         7.2810    0.0490   -2.9260 h1        1 MOL      0.117453
     47 H19         7.5990    0.8310   -1.3070 h1        1 MOL      0.117453
     48 N5          4.6860    1.6110   -2.0570 n         1 MOL     -0.310342
     49 C16         3.7450    2.4960   -2.7030 c3        1 MOL      0.039100
     50 C17         3.9140    3.9540   -2.2520 c         1 MOL      0.523953
     51 O10         4.3720    4.1720   -1.1540 o         1 MOL     -0.504703
     52 C18         2.2860    1.9370   -2.4710 c3        1 MOL     -0.229366
     53 C19         2.1520    0.4550   -2.8380 c         1 MOL      0.415000
     54 N6          2.0510   -0.4100   -1.8930 n         1 MOL     -0.321800
     55 O11         2.0830   -0.0090   -3.9380 o         1 MOL     -0.527905
     56 H20         4.3440    0.9170   -1.4070 hn        1 MOL      0.166843
     57 H21         3.9350    2.5040   -3.7760 h1        1 MOL      0.045462
     58 H22         1.5780    2.5280   -3.0370 hc        1 MOL      0.076438
     59 H23         1.9540    2.1200   -1.4420 hc        1 MOL      0.076438
     60 H24         2.1070   -0.1920   -0.9120 hn        1 MOL      0.280739
     61 H25         2.1330   -1.3680   -2.2060 hn        1 MOL      0.280739
     62 N7          3.3090    4.8500   -3.0310 n         1 MOL     -0.469942
     63 C20         2.9190    6.2370   -2.5030 c3        1 MOL      0.129100
     64 C21         1.3470    6.4470   -2.3020 c         1 MOL      0.377459
     65 O12         0.5500    5.9920   -3.1660 o         1 MOL     -0.469487
     66 H26         2.9890    4.5260   -3.9270 hn        1 MOL      0.292672
     67 H27         3.2830    6.9890   -3.2080 h1        1 MOL      0.035827
     68 H28         3.4550    6.4130   -1.5640 h1        1 MOL      0.035827
     69 N8          0.8950    7.0490   -1.1870 n         1 MOL     -0.380818
     70 C22        -0.5350    7.3280   -0.9010 c3        1 MOL      0.003545
     71 C23        -1.1950    5.9360   -0.4090 c         1 MOL      0.551501
     72 O13        -2.3630    5.7020   -0.7520 o         1 MOL     -0.578421
     73 C24        -0.6350    8.3820    0.2540 c3        1 MOL      0.276185
     74 C25        -2.0130    8.4990    0.8480 c3        1 MOL     -0.392099
     75 O14         0.2360    8.2640    1.3300 oh        1 MOL     -0.609530
     76 H29         1.4510    7.6140   -0.5630 hn        1 MOL      0.257616
     77 H30        -1.1070    7.4900   -1.8150 h1        1 MOL      0.098654
     78 H31        -0.3990    9.2820   -0.3250 h1        1 MOL     -0.000166
     79 H32         0.0980    8.9920    1.9430 ho        1 MOL      0.414564
     80 H33        -2.0330    9.3450    1.5340 hc        1 MOL      0.104143
     81 H34        -2.7250    8.7340    0.0510 hc        1 MOL      0.104143
     82 H35        -2.2810    7.6500    1.4800 hc        1 MOL      0.104143
     83 N9         -0.5340    5.0870    0.3460 n         1 MOL     -0.301017
     84 C26        -1.1560    3.9500    0.9390 c3        1 MOL     -0.111736
     85 C27        -1.1910    2.7670   -0.1190 c         1 MOL      0.555017
     86 O15        -0.5230    2.7610   -1.1100 o         1 MOL     -0.448391
     87 C28        -0.3310    3.5240    2.1640 c3        1 MOL      0.022450
     88 C29         1.1430    3.1870    1.8590 c3        1 MOL     -0.058333
     89 C30        -0.5770    4.6970    3.1920 c3        1 MOL     -0.221965
     90 C31         1.7860    2.6170    3.1800 c3        1 MOL     -0.302971
     91 H36         0.4530    5.2890    0.4910 hn        1 MOL      0.233697
     92 H37        -2.1960    4.2320    1.1140 h1        1 MOL      0.089121
     93 H38        -0.8170    2.6260    2.5440 hc        1 MOL      0.047896
     94 H39         1.6120    4.0800    1.4490 hc        1 MOL      0.092073
     95 H40         1.2710    2.4370    1.0870 hc        1 MOL      0.092073
     96 H41        -1.6430    4.7720    3.3930 hc        1 MOL      0.058961
     97 H42        -0.1230    4.5540    4.1810 hc        1 MOL      0.058961
     98 H43        -0.2660    5.6550    2.7890 hc        1 MOL      0.058961
     99 H44         0.9380    2.0590    3.5750 hc        1 MOL      0.091707
    100 H45         2.6060    1.9260    2.9530 hc        1 MOL      0.091707
    101 H46         2.2090    3.4130    3.7790 hc        1 MOL      0.091707
    102 N10        -2.0370    1.7800    0.1640 n         1 MOL     -0.485189
    103 C32        -2.0470    0.5460   -0.6270 c3        1 MOL      0.018284
    104 C33        -3.5070    0.0300   -0.6800 c         1 MOL      0.550126
    105 O16        -3.7720   -1.2300   -0.6320 o         1 MOL     -0.431863
    106 C34        -1.0820   -0.4540    0.0320 c3        1 MOL      0.038205
    107 C35        -0.8780   -1.6870   -0.8150 c         1 MOL      0.186652
    108 O17        -0.4850   -2.7780   -0.2760 o         1 MOL     -0.586697
    109 O18        -1.1420   -1.7380   -2.0670 o         1 MOL     -0.586697
    110 H47        -2.6340    1.7600    0.9840 hn        1 MOL      0.250449
    111 H48        -1.7410    0.8410   -1.6340 h1        1 MOL      0.107926
    112 H49        -1.5150   -0.7770    0.9860 hc        1 MOL      0.032129
    113 H50        -0.1320    0.0490    0.2480 hc        1 MOL      0.032129
    114 N11        -4.5360    0.8570   -0.8010 n         1 MOL     -0.524422
    115 C36        -5.9500    0.4630   -0.8580 c3        1 MOL      0.408173
    116 C37        -6.4010   -0.1890    0.4730 c         1 MOL      0.242670
    117 O19        -6.0410    0.4250    1.4620 o         1 MOL     -0.512266
    118 C38        -6.7980    1.7180   -1.1800 c3        1 MOL     -0.357933
    119 C39        -8.3290    1.5790   -1.1160 ca        1 MOL      0.170661
    120 C40        -9.0490    1.3590   -2.3530 ca        1 MOL     -0.228176
    121 C41        -9.0050    1.8120    0.0810 ca        1 MOL     -0.228176
    122 C42       -10.4060    1.2850   -2.2950 ca        1 MOL     -0.035002
    123 C43       -10.3910    1.5050    0.0810 ca        1 MOL     -0.035002
    124 C44       -11.1220    1.2950   -1.1360 ca        1 MOL     -0.184658
    125 H51        -4.3650    1.8510   -0.8090 hn        1 MOL      0.279155
    126 H52        -6.1000   -0.2800   -1.6470 h1        1 MOL     -0.058187
    127 H53        -6.5080    2.0300   -2.1880 hc        1 MOL      0.123340
    128 H54        -6.5280    2.5490   -0.5220 hc        1 MOL      0.123340
    129 H55        -8.6030    1.1800   -3.3240 ha        1 MOL      0.145405
    130 H56        -8.4640    2.0720    0.9720 ha        1 MOL      0.145405
    131 H57       -10.9720    1.1690   -3.2120 ha        1 MOL      0.084056
    132 H58       -10.9180    1.5100    1.0250 ha        1 MOL      0.084056
    133 H59       -12.2100    1.2200   -1.1190 ha        1 MOL      0.114797
    134 N12        -7.1290   -1.3530    0.5570 n         1 MOL      0.087706
    135 C45        -7.5650   -1.9690    1.7900 c3        1 MOL     -0.012563
    136 C46        -6.3600   -2.3530    2.7160 c         1 MOL      0.410644
    137 O20        -6.5300   -2.4310    3.9270 o         1 MOL     -0.564660
    138 C47        -8.3530   -3.1220    1.3040 c3        1 MOL      0.041070
    139 C48        -8.8570   -2.7740   -0.0480 c3        1 MOL     -0.169669
    140 C49        -7.7520   -1.9380   -0.6090 c3        1 MOL      0.096473
    141 H60        -8.2830   -1.3100    2.2880 h1        1 MOL      0.034208
    142 H61        -7.7130   -4.0040    1.1860 hc        1 MOL      0.024352
    143 H62        -9.0360   -3.5070    2.0600 hc        1 MOL      0.024352
    144 H63        -9.1060   -3.6330   -0.6780 hc        1 MOL      0.036917
    145 H64        -9.7130   -2.0950    0.0010 hc        1 MOL      0.036917
    146 H65        -6.9590   -2.5150   -1.0790 h1        1 MOL      0.012727
    147 H66        -8.2230   -1.1590   -1.2080 h1        1 MOL      0.012727
    148 N13        -5.2180   -2.5070    2.1490 n         1 MOL     -0.196015
    149 C50        -4.0530   -3.0930    2.8370 c3        1 MOL     -0.205345
    150 C51        -3.2790   -2.1880    3.8530 c         1 MOL      0.467675
    151 O21        -2.4090   -2.6490    4.5790 o         1 MOL     -0.548644
    152 C52        -3.1200   -3.7110    1.7260 c3        1 MOL     -0.108062
    153 C53        -3.7480   -4.6530    0.7220 c3        1 MOL      0.014811
    154 C54        -2.6430   -5.2660   -0.1480 c         1 MOL      0.617623
    155 O22        -2.3340   -4.7960   -1.2710 o         1 MOL     -0.712154
    156 O23        -2.1740   -6.3650    0.2340 o         1 MOL     -0.712154
    157 H67        -5.1590   -2.3350    1.1490 hn        1 MOL      0.095259
    158 H68        -4.3830   -3.8740    3.5200 h1        1 MOL      0.150214
    159 H69        -2.2830   -4.1360    2.2730 hc        1 MOL      0.105802
    160 H70        -2.6840   -2.8620    1.1900 hc        1 MOL      0.105802
    161 H71        -4.4230   -4.2530   -0.0440 hc        1 MOL     -0.001994
    162 H72        -4.2440   -5.4670    1.2460 hc        1 MOL     -0.001994
    163 N14        -3.6710   -0.9430    4.0640 n         1 MOL     -0.173089
    164 C55        -3.1740   -0.0880    5.1710 c3        1 MOL     -0.049018
    165 H73        -2.6020   -0.6970    5.8700 h1        1 MOL      0.044927
    166 H74        -2.5350    0.6970    4.7660 h1        1 MOL      0.044927
    167 H75        -4.0200    0.3620    5.6900 h1        1 MOL      0.044927
    168 H76        -4.3600   -0.5900    3.4120 hn        1 MOL      0.218658
    169 Ca1        -0.1100   -4.1350   -2.3660 Ca        1 MOL      1.678023
    170 O24         1.3700   -5.8280   -0.7330 oh        1 MOL     -0.810506
    171 H77         1.4970   -5.3150    0.0640 ho        1 MOL      0.392490
    172 H78         1.7000   -6.6940   -0.5290 ho        1 MOL      0.392490
    173 O25        -1.8680   -4.7800   -4.2600 oh        1 MOL     -0.810506
    174 H79        -2.0490   -5.7190   -4.2090 ho        1 MOL      0.392490
    175 H80        -2.0380   -4.5540   -5.1740 ho        1 MOL      0.392490
    176 O26         1.2700   -5.3950   -4.3820 oh        1 MOL     -0.810506
    177 H81         1.3620   -6.2540   -4.8070 ho        1 MOL      0.392490
    178 H82         2.1620   -5.0920   -4.2490 ho        1 MOL      0.392490
    179 O27         0.3920   -2.3740   -4.5270 oh        1 MOL     -0.810506
    180 H83         0.0260   -1.5680   -4.1670 ho        1 MOL      0.392490
    181 H84         0.9590   -2.0900   -5.2390 ho        1 MOL      0.392490
@<TRIPOS>BOND
     1    1    2 1   
     2    1    4 1   
     3    1    5 1   
     4    1    6 1   
     5    2    3 2   
     6    2    7 1   
     7    7    8 1   
     8    7   15 1   
     9    8    9 1   
    10    8   11 1   
    11    8   16 1   
    12    9   10 2   
    13    9   19 1   
    14   11   12 1   
    15   11   17 1   
    16   11   18 1   
    17   12   13 1   
    18   12   14 1   
    19   19   20 1   
    20   19   24 1   
    21   20   21 1   
    22   20   23 1   
    23   20   25 1   
    24   21   22 2   
    25   21   29 1   
    26   23   26 1   
    27   23   27 1   
    28   23   28 1   
    29   29   30 1   
    30   29   37 1   
    31   30   31 1   
    32   30   33 1   
    33   30   38 1   
    34   31   32 2   
    35   31   41 1   
    36   33   34 1   
    37   33   39 1   
    38   33   40 1   
    39   34   35 1   
    40   34   36 1   
    41   41   42 1   
    42   41   45 1   
    43   42   43 1   
    44   42   46 1   
    45   42   47 1   
    46   43   44 2   
    47   43   48 1   
    48   48   49 1   
    49   48   56 1   
    50   49   50 1   
    51   49   52 1   
    52   49   57 1   
    53   50   51 2   
    54   50   62 1   
    55   52   53 1   
    56   52   58 1   
    57   52   59 1   
    58   53   54 1   
    59   53   55 2   
    60   54   60 1   
    61   54   61 1   
    62   62   63 1   
    63   62   66 1   
    64   63   64 1   
    65   63   67 1   
    66   63   68 1   
    67   64   65 2   
    68   64   69 1   
    69   69   70 1   
    70   69   76 1   
    71   70   71 1   
    72   70   73 1   
    73   70   77 1   
    74   71   72 2   
    75   71   83 1   
    76   73   74 1   
    77   73   75 1   
    78   73   78 1   
    79   74   80 1   
    80   74   81 1   
    81   74   82 1   
    82   75   79 1   
    83   83   84 1   
    84   83   91 1   
    85   84   85 1   
    86   84   87 1   
    87   84   92 1   
    88   85   86 2   
    89   85  102 1   
    90   87   88 1   
    91   87   89 1   
    92   87   93 1   
    93   88   90 1   
    94   88   94 1   
    95   88   95 1   
    96   89   96 1   
    97   89   97 1   
    98   89   98 1   
    99   90   99 1   
   100   90  100 1   
   101   90  101 1   
   102  102  103 1   
   103  102  110 1   
   104  103  104 1   
   105  103  106 1   
   106  103  111 1   
   107  104  105 2   
   108  104  114 1   
   109  106  107 1   
   110  106  112 1   
   111  106  113 1   
   112  107  108 1   
   113  107  109 1   
   114  114  115 1   
   115  114  125 1   
   116  115  116 1   
   117  115  118 1   
   118  115  126 1   
   119  116  117 2   
   120  116  134 1   
   121  118  119 1   
   122  118  127 1   
   123  118  128 1   
   124  119  120 ar  
   125  119  121 ar  
   126  120  122 ar  
   127  120  129 1   
   128  121  123 ar  
   129  121  130 1   
   130  122  124 ar  
   131  122  131 1   
   132  123  124 ar  
   133  123  132 1   
   134  124  133 1   
   135  134  135 1   
   136  134  140 1   
   137  135  136 1   
   138  135  138 1   
   139  135  141 1   
   140  136  137 2   
   141  136  148 1   
   142  138  139 1   
   143  138  142 1   
   144  138  143 1   
   145  139  140 1   
   146  139  144 1   
   147  139  145 1   
   148  140  146 1   
   149  140  147 1   
   150  148  149 1   
   151  148  157 1   
   152  149  150 1   
   153  149  152 1   
   154  149  158 1   
   155  150  151 2   
   156  150  163 1   
   157  152  153 1   
   158  152  159 1   
   159  152  160 1   
   160  153  154 1   
   161  153  161 1   
   162  153  162 1   
   163  154  155 1   
   164  154  156 1   
   165  163  164 1   
   166  163  168 1   
   167  164  165 1   
   168  164  166 1   
   169  164  167 1   
   170  170  171 1   
   171  170  172 1   
   172  173  174 1   
   173  173  175 1   
   174  176  177 1   
   175  176  178 1   
   176  179  180 1   
   177  179  181 1   
@<TRIPOS>SUBSTRUCTURE
     1 MOL         1 TEMP              0 ****  ****    0 ROOT
