@<TRIPOS>MOLECULE
MOL
  192   187     1     0     0
SMALL
resp


@<TRIPOS>ATOM
      1 C1         -5.4800   -3.6220    5.2150 c3        1 MOL     -0.326636
      2 C2         -5.0110   -3.1610    3.8550 c         1 MOL      0.845731
      3 O1         -4.5180   -3.9530    3.1360 o         1 MOL     -0.608789
      4 H1         -5.5890   -2.7610    5.8730 hc        1 MOL      0.073683
      5 H2         -6.4420   -4.1260    5.1170 hc        1 MOL      0.073683
      6 H3         -4.7500   -4.3120    5.6380 hc        1 MOL      0.073683
      7 N1         -5.1840   -1.8620    3.5250 n         1 MOL     -0.695348
      8 C3         -4.8840   -1.2500    2.2610 c3        1 MOL      0.169073
      9 C4         -3.3330   -1.0250    1.9370 c         1 MOL      0.165658
     10 O2         -3.0560   -0.1530    1.0890 o         1 MOL     -0.229303
     11 C5         -5.7650   -0.0230    1.9580 c3        1 MOL     -0.033401
     12 C6         -6.2400    0.8120    3.1880 c         1 MOL      0.619988
     13 O3         -7.2230    0.3530    3.8240 o         1 MOL     -0.688112
     14 O4         -5.7510    1.9690    3.4270 o         1 MOL     -0.688112
     15 H4         -5.6980   -1.3380    4.2230 hn        1 MOL      0.315855
     16 H5         -5.2150   -2.0700    1.6270 h1        1 MOL      0.099539
     17 H6         -6.6650   -0.4130    1.4860 hc        1 MOL      0.005403
     18 H7         -5.2320    0.5550    1.2070 hc        1 MOL      0.005403
     19 N2         -2.3750   -1.7420    2.6480 n         1 MOL     -0.129778
     20 C7         -0.9560   -1.2730    2.5880 c3        1 MOL     -0.041590
     21 C8         -0.0190   -2.3420    2.0250 c         1 MOL      0.472787
     22 O5         -0.1100   -3.5170    2.3990 o         1 MOL     -0.517305
     23 C9         -0.4580   -0.7570    3.9860 c3        1 MOL     -0.253721
     24 C10        -1.0490    0.5950    4.4160 c3        1 MOL      0.016895
     25 C11        -0.0590    1.7640    4.5000 c3        1 MOL      0.059593
     26 C12        -0.8710    2.9940    4.8910 c3        1 MOL      0.083256
     27 N3         -0.0800    4.1890    4.9850 n4        1 MOL     -0.503080
     28 H8         -2.6910   -2.3740    3.3730 hn        1 MOL      0.210565
     29 H9         -0.9290   -0.4520    1.8650 h1        1 MOL      0.122647
     30 H10         0.6230   -0.8210    4.0610 hc        1 MOL      0.116962
     31 H11        -0.8010   -1.3650    4.8270 hc        1 MOL      0.116962
     32 H12        -1.4090    0.4110    5.4320 hc        1 MOL      0.015631
     33 H13        -1.9310    0.8340    3.8220 hc        1 MOL      0.015631
     34 H14         0.5750    1.9230    3.6320 hc        1 MOL      0.009094
     35 H15         0.6650    1.5130    5.2770 hc        1 MOL      0.009094
     36 H16        -1.4230    2.7100    5.7860 hx        1 MOL      0.053987
     37 H17        -1.6680    3.1480    4.1640 hx        1 MOL      0.053987
     38 H18        -0.6940    4.9310    5.2910 hn        1 MOL      0.364148
     39 H19         0.6010    4.0670    5.7130 hn        1 MOL      0.364148
     40 H20         0.3090    4.4200    4.0790 hn        1 MOL      0.364148
     41 N4          0.9460   -2.0210    1.0980 n         1 MOL     -0.174978
     42 C13         1.3190   -0.7620    0.4160 c3        1 MOL     -0.464773
     43 C14         1.3940    0.5770    1.2880 c         1 MOL      0.327922
     44 O6          0.6250    1.5120    1.1310 o         1 MOL     -0.478144
     45 C15         0.4820   -0.6710   -0.8900 c3        1 MOL     -0.032356
     46 C16         0.6750   -1.8570   -1.8590 c         1 MOL      0.522912
     47 O7          1.5680   -2.7550   -1.6610 o         1 MOL     -0.709294
     48 O8         -0.0810   -1.8830   -2.8820 o         1 MOL     -0.709294
     49 H21         1.5030   -2.7800    0.7540 hn        1 MOL      0.167596
     50 H22         2.3540   -0.8470    0.0970 h1        1 MOL      0.342542
     51 H23         0.8950    0.1590   -1.4550 hc        1 MOL      0.096866
     52 H24        -0.5890   -0.6900   -0.6660 hc        1 MOL      0.096866
     53 N5          2.2910    0.5540    2.2420 n         1 MOL     -0.190871
     54 C17         3.2000   -0.5790    2.6240 c3        1 MOL     -0.121864
     55 C18         4.1460   -0.2340    3.7950 c         1 MOL      0.653908
     56 O9          3.8700    0.6580    4.5970 o         1 MOL     -0.604228
     57 H25         2.4280    1.3990    2.7780 hn        1 MOL      0.242206
     58 H26         3.7860   -0.7410    1.7170 h1        1 MOL      0.049302
     59 H27         2.5630   -1.4120    2.9440 h1        1 MOL      0.049302
     60 N6          5.2440   -0.9240    3.9840 n         1 MOL     -0.511736
     61 C19         5.8320   -2.0680    3.2360 c3        1 MOL      0.158676
     62 C20         6.4340   -1.7370    1.8530 c         1 MOL      0.375004
     63 O10         6.9690   -0.6560    1.5420 o         1 MOL     -0.446532
     64 C21         6.8490   -2.7810    4.2010 c3        1 MOL     -0.232514
     65 C22         7.8520   -1.7800    4.7680 c         1 MOL      0.710209
     66 O11         7.4910   -1.0180    5.6470 o         1 MOL     -0.669601
     67 O12         9.0600   -1.6730    4.2840 o         1 MOL     -0.669601
     68 H28         5.9190   -0.5540    4.6270 hn        1 MOL      0.333093
     69 H29         5.0380   -2.8130    3.1110 h1        1 MOL      0.001690
     70 H30         7.3710   -3.4670    3.5400 hc        1 MOL      0.034952
     71 H31         6.3400   -3.2690    5.0240 hc        1 MOL      0.034952
     72 N7          6.4390   -2.7330    0.9880 n         1 MOL     -0.105049
     73 C23         7.0700   -2.7930   -0.3100 c3        1 MOL     -0.280121
     74 C24         6.5810   -1.7020   -1.3300 c         1 MOL      0.571265
     75 O13         7.3840   -1.5160   -2.2800 o         1 MOL     -0.566014
     76 H32         6.0140   -3.5720    1.3440 hn        1 MOL      0.177070
     77 H33         6.7890   -3.7780   -0.6920 h1        1 MOL      0.121905
     78 H34         8.1430   -2.7730   -0.1820 h1        1 MOL      0.121905
     79 N8          5.4120   -1.0730   -1.2200 n         1 MOL     -0.315757
     80 C25         4.9000    0.0110   -2.0930 c3        1 MOL     -0.009881
     81 C26         4.5580    1.2190   -1.1640 c         1 MOL      0.525653
     82 O14         4.1490    1.0460    0.0010 o         1 MOL     -0.423684
     83 C27         3.6990   -0.4650   -2.9650 c3        1 MOL      0.293927
     84 C28         4.2190   -1.2460   -4.1890 c3        1 MOL     -0.210454
     85 O15         2.8440    0.5660   -3.4270 oh        1 MOL     -0.507902
     86 H35         4.7880   -1.3700   -0.4880 hn        1 MOL      0.084075
     87 H36         5.6830    0.3970   -2.7450 h1        1 MOL      0.081323
     88 H37         3.0200   -1.1110   -2.3930 h1        1 MOL      0.052935
     89 H38         3.2530    0.9590   -4.2130 ho        1 MOL      0.340336
     90 H39         5.0370   -0.7500   -4.7100 hc        1 MOL      0.037778
     91 H40         4.5490   -2.2010   -3.7890 hc        1 MOL      0.037778
     92 H41         3.4240   -1.5650   -4.8550 hc        1 MOL      0.037778
     93 N9          4.6020    2.4340   -1.7490 n         1 MOL     -0.406385
     94 C29         4.4680    3.6600   -0.9930 c3        1 MOL     -0.167775
     95 C30         3.0400    4.0690   -0.6020 c         1 MOL      0.404092
     96 O16         2.9230    4.7950    0.4340 o         1 MOL     -0.530580
     97 C31         5.2900    4.7880   -1.6950 c3        1 MOL      0.215718
     98 C32         4.8010    5.1100   -3.1380 c3        1 MOL      0.289840
     99 C33         6.7430    4.5630   -1.5800 c3        1 MOL     -0.228196
    100 C34         5.4410    6.3090   -3.7520 c3        1 MOL     -0.256222
    101 H42         4.7100    2.5330   -2.7460 hn        1 MOL      0.245541
    102 H43         4.8760    3.4920   -0.0000 h1        1 MOL      0.130125
    103 H44         5.0060    5.6510   -1.0800 hc        1 MOL     -0.000783
    104 H45         3.7100    5.2180   -3.1450 hc        1 MOL     -0.079896
    105 H46         5.0210    4.2310   -3.7490 hc        1 MOL     -0.079896
    106 H47         7.3180    5.4690   -1.7850 hc        1 MOL      0.058791
    107 H48         7.1150    4.3800   -0.5710 hc        1 MOL      0.058791
    108 H49         7.0920    3.7860   -2.2600 hc        1 MOL      0.058791
    109 H50         6.5020    6.1060   -3.8900 hc        1 MOL      0.049574
    110 H51         4.8770    6.5290   -4.6580 hc        1 MOL      0.049574
    111 H52         5.3870    7.1260   -3.0320 hc        1 MOL      0.049574
    112 N10         2.0240    3.7640   -1.3700 n         1 MOL     -0.086373
    113 C35         0.7330    4.4620   -1.2530 c3        1 MOL     -0.108159
    114 C36        -0.4090    3.4340   -1.2330 c         1 MOL      0.611423
    115 O17        -0.4740    2.4420   -1.9590 o         1 MOL     -0.474871
    116 C37         0.5320    5.4940   -2.2950 c3        1 MOL      0.404518
    117 C38         0.7620    5.0510   -3.7320 c3        1 MOL     -0.313747
    118 O18         1.3850    6.5750   -2.0940 oh        1 MOL     -0.648658
    119 H53         2.1220    3.2320   -2.2220 hn        1 MOL      0.126333
    120 H54         0.6790    4.9840   -0.3000 h1        1 MOL      0.065027
    121 H55        -0.4660    5.9250   -2.2490 h1        1 MOL     -0.038349
    122 H56         0.9200    7.3420   -2.4310 ho        1 MOL      0.404374
    123 H57         0.5920    5.8810   -4.4100 hc        1 MOL      0.082498
    124 H58         1.8040    4.7580   -3.8270 hc        1 MOL      0.082498
    125 H59         0.0710    4.2230   -3.9230 hc        1 MOL      0.082498
    126 N11        -1.4400    3.8500   -0.4670 n         1 MOL     -0.578481
    127 C39        -2.5730    3.0100   -0.0640 c3        1 MOL      0.003146
    128 C40        -3.5310    2.6790   -1.1730 c         1 MOL      0.722679
    129 O19        -3.7670    3.5010   -2.0190 o         1 MOL     -0.608621
    130 C41        -3.3390    3.5090    1.1880 c3        1 MOL      0.389525
    131 C42        -4.2070    4.8150    0.9560 c3        1 MOL     -0.367970
    132 O20        -2.3850    3.8280    2.2530 oh        1 MOL     -0.588019
    133 H60        -1.3750    4.8000   -0.1050 hn        1 MOL      0.296780
    134 H61        -2.1630    2.0600    0.2780 h1        1 MOL      0.003154
    135 H62        -4.0490    2.7450    1.5000 h1        1 MOL      0.030437
    136 H63        -1.8910    4.6340    2.0390 ho        1 MOL      0.365583
    137 H64        -3.5650    5.6410    0.6520 hc        1 MOL      0.077807
    138 H65        -4.9260    4.7390    0.1430 hc        1 MOL      0.077807
    139 H66        -4.7710    5.1020    1.8480 hc        1 MOL      0.077807
    140 N12        -4.0950    1.4330   -1.1690 n         1 MOL     -0.545363
    141 C43        -4.9370    0.8640   -2.2990 c3        1 MOL     -0.038845
    142 C44        -4.7630   -0.6490   -2.5350 c         1 MOL      0.521442
    143 O21        -5.2880   -1.2130   -3.4830 o         1 MOL     -0.574603
    144 C45        -6.4000    1.1920   -2.0330 c3        1 MOL     -0.070183
    145 C46        -6.7040    2.6100   -1.5360 c3        1 MOL      0.292871
    146 C47        -8.1700    2.7440   -1.1400 c3        1 MOL     -0.304294
    147 C48        -8.4250    4.1390   -0.4970 c3        1 MOL      0.003771
    148 N13        -8.1950    5.2520   -1.4920 n4        1 MOL     -0.440444
    149 H67        -3.9370    0.8310   -0.3730 hn        1 MOL      0.304948
    150 H68        -4.7360    1.4270   -3.2060 h1        1 MOL      0.102796
    151 H69        -6.8140    0.5340   -1.2660 hc        1 MOL      0.034874
    152 H70        -6.9550    1.0140   -2.9440 hc        1 MOL      0.034874
    153 H71        -6.5400    3.2880   -2.3810 hc        1 MOL     -0.054816
    154 H72        -6.1510    2.9420   -0.6600 hc        1 MOL     -0.054816
    155 H73        -8.3180    1.9550   -0.3880 hc        1 MOL      0.103370
    156 H74        -8.7940    2.4750   -1.9940 hc        1 MOL      0.103370
    157 H75        -7.8650    4.1510    0.4420 hx        1 MOL      0.130462
    158 H76        -9.4550    4.1520   -0.1460 hx        1 MOL      0.130462
    159 H77        -8.8470    5.2030   -2.2660 hn        1 MOL      0.330888
    160 H78        -8.1540    6.1490   -1.0170 hn        1 MOL      0.330888
    161 H79        -7.3410    5.0780   -2.0100 hn        1 MOL      0.330888
    162 N14        -4.0440   -1.3240   -1.6210 n         1 MOL     -0.094772
    163 C49        -3.9060   -2.8110   -1.6200 c3        1 MOL     -0.142308
    164 C50        -5.2600   -3.5300   -1.2590 c         1 MOL      0.334596
    165 O22        -6.0130   -3.1180   -0.3890 o         1 MOL     -0.461595
    166 C51        -2.7080   -3.3870   -0.8660 c3        1 MOL      1.024168
    167 C52        -2.4150   -4.8900   -0.7530 c3        1 MOL     -0.175222
    168 C53        -2.2070   -5.5300   -2.1280 c         1 MOL      0.674646
    169 O23        -3.2180   -6.0780   -2.5560 o         1 MOL     -0.757396
    170 O24        -1.1350   -5.3390   -2.7380 o         1 MOL     -0.757396
    171 H80        -3.6690   -0.8630   -0.8010 hn        1 MOL     -0.009308
    172 H81        -3.6450   -3.0420   -2.6510 h1        1 MOL      0.022018
    173 H82        -2.8660   -3.0010    0.1400 hc        1 MOL     -0.322770
    174 H83        -1.7990   -3.0170   -1.3390 hc        1 MOL     -0.322770
    175 H84        -3.1970   -5.3650   -0.1470 hc        1 MOL     -0.008765
    176 H85        -1.4520   -4.8690   -0.2410 hc        1 MOL     -0.008765
    177 N15        -5.6450   -4.5630   -2.0510 n         1 MOL     -0.159557
    178 C54        -6.9160   -5.2420   -2.0870 c3        1 MOL     -0.302389
    179 H86        -6.8910   -6.0210   -2.8490 h1        1 MOL      0.112382
    180 H87        -7.1150   -5.6930   -1.1140 h1        1 MOL      0.112382
    181 H88        -7.7040   -4.5280   -2.3250 h1        1 MOL      0.112382
    182 H89        -5.0310   -4.8970   -2.7820 hn        1 MOL      0.317186
    183 Ca1         1.3430   -4.7480   -3.2150 Ca        1 MOL      1.737405
    184 O25         3.0470   -4.2980   -5.3080 oh        1 MOL     -0.891449
    185 H90         4.0070   -4.2530   -5.3720 ho        1 MOL      0.449533
    186 H91         2.7410   -3.7620   -6.0470 ho        1 MOL      0.449533
    187 O26         3.9470   -4.7630   -2.4710 oh        1 MOL     -0.891449
    188 H92         4.1790   -4.9270   -1.5580 ho        1 MOL      0.449533
    189 H93         4.7420   -4.9600   -2.9690 ho        1 MOL      0.449533
    190 O27         0.1500   -3.3220   -5.2340 oh        1 MOL     -0.891449
    191 H94        -0.3560   -2.8170   -4.6060 ho        1 MOL      0.449533
    192 H95        -0.0340   -2.9150   -6.0840 ho        1 MOL      0.449533
@<TRIPOS>BOND
     1    1    2 1   
     2    1    4 1   
     3    1    5 1   
     4    1    6 1   
     5    2    3 2   
     6    2    7 1   
     7    7    8 1   
     8    7   15 1   
     9    8    9 1   
    10    8   11 1   
    11    8   16 1   
    12    9   10 2   
    13    9   19 1   
    14   11   12 1   
    15   11   17 1   
    16   11   18 1   
    17   12   13 1   
    18   12   14 1   
    19   19   20 1   
    20   19   28 1   
    21   20   21 1   
    22   20   23 1   
    23   20   29 1   
    24   21   22 2   
    25   21   41 1   
    26   23   24 1   
    27   23   30 1   
    28   23   31 1   
    29   24   25 1   
    30   24   32 1   
    31   24   33 1   
    32   25   26 1   
    33   25   34 1   
    34   25   35 1   
    35   26   27 1   
    36   26   36 1   
    37   26   37 1   
    38   27   38 1   
    39   27   39 1   
    40   27   40 1   
    41   41   42 1   
    42   41   49 1   
    43   42   43 1   
    44   42   45 1   
    45   42   50 1   
    46   43   44 2   
    47   43   53 1   
    48   45   46 1   
    49   45   51 1   
    50   45   52 1   
    51   46   47 1   
    52   46   48 1   
    53   53   54 1   
    54   53   57 1   
    55   54   55 1   
    56   54   58 1   
    57   54   59 1   
    58   55   56 2   
    59   55   60 1   
    60   60   61 1   
    61   60   68 1   
    62   61   62 1   
    63   61   64 1   
    64   61   69 1   
    65   62   63 2   
    66   62   72 1   
    67   64   65 1   
    68   64   70 1   
    69   64   71 1   
    70   65   66 1   
    71   65   67 1   
    72   72   73 1   
    73   72   76 1   
    74   73   74 1   
    75   73   77 1   
    76   73   78 1   
    77   74   75 2   
    78   74   79 1   
    79   79   80 1   
    80   79   86 1   
    81   80   81 1   
    82   80   83 1   
    83   80   87 1   
    84   81   82 2   
    85   81   93 1   
    86   83   84 1   
    87   83   85 1   
    88   83   88 1   
    89   84   90 1   
    90   84   91 1   
    91   84   92 1   
    92   85   89 1   
    93   93   94 1   
    94   93  101 1   
    95   94   95 1   
    96   94   97 1   
    97   94  102 1   
    98   95   96 2   
    99   95  112 1   
   100   97   98 1   
   101   97   99 1   
   102   97  103 1   
   103   98  100 1   
   104   98  104 1   
   105   98  105 1   
   106   99  106 1   
   107   99  107 1   
   108   99  108 1   
   109  100  109 1   
   110  100  110 1   
   111  100  111 1   
   112  112  113 1   
   113  112  119 1   
   114  113  114 1   
   115  113  116 1   
   116  113  120 1   
   117  114  115 2   
   118  114  126 1   
   119  116  117 1   
   120  116  118 1   
   121  116  121 1   
   122  117  123 1   
   123  117  124 1   
   124  117  125 1   
   125  118  122 1   
   126  126  127 1   
   127  126  133 1   
   128  127  128 1   
   129  127  130 1   
   130  127  134 1   
   131  128  129 2   
   132  128  140 1   
   133  130  131 1   
   134  130  132 1   
   135  130  135 1   
   136  131  137 1   
   137  131  138 1   
   138  131  139 1   
   139  132  136 1   
   140  140  141 1   
   141  140  149 1   
   142  141  142 1   
   143  141  144 1   
   144  141  150 1   
   145  142  143 2   
   146  142  162 1   
   147  144  145 1   
   148  144  151 1   
   149  144  152 1   
   150  145  146 1   
   151  145  153 1   
   152  145  154 1   
   153  146  147 1   
   154  146  155 1   
   155  146  156 1   
   156  147  148 1   
   157  147  157 1   
   158  147  158 1   
   159  148  159 1   
   160  148  160 1   
   161  148  161 1   
   162  162  163 1   
   163  162  171 1   
   164  163  164 1   
   165  163  166 1   
   166  163  172 1   
   167  164  165 2   
   168  164  177 1   
   169  166  167 1   
   170  166  173 1   
   171  166  174 1   
   172  167  168 1   
   173  167  175 1   
   174  167  176 1   
   175  168  169 1   
   176  168  170 1   
   177  177  178 1   
   178  177  182 1   
   179  178  179 1   
   180  178  180 1   
   181  178  181 1   
   182  184  185 1   
   183  184  186 1   
   184  187  188 1   
   185  187  189 1   
   186  190  191 1   
   187  190  192 1   
@<TRIPOS>SUBSTRUCTURE
     1 MOL         1 TEMP              0 ****  ****    0 ROOT
