@<TRIPOS>MOLECULE
MOL
  192   187     1     0     0
SMALL
resp


@<TRIPOS>ATOM
      1 C1          4.2720    4.9560   -3.3020 c3        1 MOL     -0.457586
      2 C2          5.0580    4.0290   -2.3280 c         1 MOL      0.771753
      3 O1          4.5610    3.6290   -1.2830 o         1 MOL     -0.608396
      4 H1          4.5080    4.6850   -4.3310 hc        1 MOL      0.119244
      5 H2          3.2020    4.8380   -3.1330 hc        1 MOL      0.119244
      6 H3          4.5550    5.9940   -3.1250 hc        1 MOL      0.119244
      7 N1          6.2740    3.6020   -2.7260 n         1 MOL     -0.669340
      8 C3          7.1160    2.6330   -2.0880 c3        1 MOL      0.601472
      9 C4          6.4410    1.2890   -1.7790 c         1 MOL      0.370045
     10 O2          6.0710    1.0370   -0.6390 o         1 MOL     -0.551724
     11 C5          8.0510    3.2350   -1.0060 c3        1 MOL     -0.548460
     12 C6          7.4580    3.9400    0.2650 c         1 MOL      0.830627
     13 O3          6.5560    3.4010    0.8510 o         1 MOL     -0.714828
     14 O4          7.8010    5.0870    0.5910 o         1 MOL     -0.714828
     15 H4          6.4820    3.8440   -3.6870 hn        1 MOL      0.289530
     16 H5          7.8140    2.3870   -2.8860 h1        1 MOL     -0.067826
     17 H6          8.6660    3.9310   -1.5690 hc        1 MOL      0.089948
     18 H7          8.7240    2.4240   -0.6980 hc        1 MOL      0.089948
     19 N2          6.0250    0.5480   -2.8070 n         1 MOL     -0.486558
     20 C7          5.2460   -0.6390   -2.8100 c3        1 MOL     -0.026026
     21 C8          5.9110   -1.8570   -2.2230 c         1 MOL      0.588716
     22 O5          6.5520   -2.5900   -2.9600 o         1 MOL     -0.607720
     23 C9          3.8280   -0.4920   -2.3860 c3        1 MOL      0.064240
     24 C10         2.9740   -1.6560   -2.7640 c3        1 MOL      0.088760
     25 C11         3.1930    0.7450   -3.0190 c3        1 MOL     -0.443157
     26 C12         3.0670   -2.1280   -4.1790 c3        1 MOL     -0.273229
     27 H8          6.2060    1.0120   -3.6870 hn        1 MOL      0.278044
     28 H9          5.1970   -0.7980   -3.8910 h1        1 MOL      0.072743
     29 H10         3.7660   -0.3060   -1.3160 hc        1 MOL     -0.020973
     30 H11         1.9300   -1.4540   -2.5240 hc        1 MOL      0.018343
     31 H12         3.2980   -2.4660   -2.1200 hc        1 MOL      0.018343
     32 H13         3.3710    1.6320   -2.4070 hc        1 MOL      0.108130
     33 H14         3.6650    0.7810   -4.0020 hc        1 MOL      0.108130
     34 H15         2.1380    0.5330   -3.1970 hc        1 MOL      0.108130
     35 H16         3.2200   -1.3740   -4.9490 hc        1 MOL      0.061620
     36 H17         3.7570   -2.9690   -4.2620 hc        1 MOL      0.061620
     37 H18         2.1270   -2.6290   -4.4200 hc        1 MOL      0.061620
     38 N3          5.6660   -2.2290   -0.9570 n         1 MOL     -0.066093
     39 C13         6.2570   -3.4430   -0.2620 c3        1 MOL     -0.333109
     40 C14         5.3760   -4.7350   -0.0430 c         1 MOL      0.623395
     41 O6          5.7080   -5.8730   -0.4740 o         1 MOL     -0.583772
     42 C15         6.7320   -2.9250    1.1210 c3        1 MOL     -0.136075
     43 C16         7.2290   -3.9810    2.0430 c         1 MOL      0.683477
     44 O7          6.7970   -4.0430    3.1990 o         1 MOL     -0.699787
     45 O8          8.0390   -4.8280    1.6310 o         1 MOL     -0.699787
     46 H19         5.2020   -1.5870   -0.3370 hn        1 MOL      0.155208
     47 H20         7.1690   -3.6460   -0.8170 h1        1 MOL      0.159955
     48 H21         5.9030   -2.4590    1.6500 hc        1 MOL      0.043819
     49 H22         7.5630   -2.2120    1.1140 hc        1 MOL      0.043819
     50 N4          4.1780   -4.6510    0.4960 n         1 MOL     -0.308876
     51 C17         3.2810   -3.5440    0.8240 c3        1 MOL     -0.293636
     52 C18         2.0790   -4.0230    1.7080 c         1 MOL      0.828767
     53 O9          1.8280   -5.2420    1.7010 o         1 MOL     -0.619200
     54 H23         3.7080   -5.5240    0.6660 hn        1 MOL      0.240852
     55 H24         2.9800   -3.0170   -0.0840 h1        1 MOL      0.154290
     56 H25         3.8580   -2.8550    1.4260 h1        1 MOL      0.154290
     57 N5          1.3780   -3.1080    2.4370 n         1 MOL     -0.506669
     58 C19         1.6890   -1.6540    2.6720 c3        1 MOL      0.048234
     59 C20         2.1520   -0.8890    1.4110 c         1 MOL      0.511363
     60 O10         3.2880   -0.3500    1.4150 o         1 MOL     -0.677825
     61 C21         2.5140   -1.4560    3.9820 c3        1 MOL     -0.083838
     62 C22         2.0150   -2.4270    5.0540 c         1 MOL      0.649669
     63 O11         0.8120   -2.4750    5.4510 o         1 MOL     -0.695105
     64 O12         2.8650   -3.2720    5.3690 o         1 MOL     -0.695105
     65 H26         0.6430   -3.4880    3.0150 hn        1 MOL      0.273866
     66 H27         0.7230   -1.2990    3.0270 h1        1 MOL      0.031505
     67 H28         2.3240   -0.4630    4.3720 hc        1 MOL     -0.004508
     68 H29         3.5680   -1.6060    3.7380 hc        1 MOL     -0.004508
     69 N6          1.3180   -0.8630    0.4230 n         1 MOL      0.003211
     70 C23        -0.1020   -1.3080    0.3250 c3        1 MOL     -0.380050
     71 C24        -0.1910   -2.6950   -0.4020 c         1 MOL      0.331120
     72 O13         0.7240   -3.0870   -1.1260 o         1 MOL     -0.463394
     73 H30         1.6690   -0.2830   -0.3290 hn        1 MOL      0.163849
     74 H31        -0.6430   -0.5930   -0.2970 h1        1 MOL      0.154581
     75 H32        -0.5810   -1.3240    1.3000 h1        1 MOL      0.154581
     76 N7         -1.3960   -3.2680   -0.3480 n         1 MOL     -0.235342
     77 C25        -1.8910   -4.4300   -1.0650 c3        1 MOL     -0.012018
     78 C26        -2.4910   -4.1840   -2.4020 c         1 MOL      0.309050
     79 O14        -2.6490   -5.1130   -3.2110 o         1 MOL     -0.489930
     80 C27        -2.7130   -5.3870   -0.2060 c3        1 MOL      0.016019
     81 C28        -1.8460   -6.1730    0.7840 c3        1 MOL     -0.090424
     82 C29        -2.6680   -6.7620    1.8930 c         1 MOL      0.594173
     83 N8         -2.0410   -7.1290    3.0190 n         1 MOL     -0.748888
     84 O15        -3.9210   -6.8500    1.8450 o         1 MOL     -0.563882
     85 H33        -2.1990   -2.9210    0.1640 hn        1 MOL      0.233016
     86 H34        -0.9480   -4.8890   -1.3650 h1        1 MOL      0.131117
     87 H35        -3.3400   -6.1390   -0.6990 hc        1 MOL      0.026124
     88 H36        -3.4130   -4.7620    0.3540 hc        1 MOL      0.026124
     89 H37        -1.0250   -5.5460    1.1350 hc        1 MOL      0.032747
     90 H38        -1.3890   -7.0010    0.2400 hc        1 MOL      0.032747
     91 H39        -1.0380   -7.2100    2.9120 hn        1 MOL      0.358763
     92 H40        -2.4470   -7.4320    3.8870 hn        1 MOL      0.358763
     93 N9         -2.8520   -2.9050   -2.6380 n         1 MOL     -0.188737
     94 C30        -3.2010   -2.3440   -3.9570 c3        1 MOL     -0.187121
     95 C31        -4.4550   -1.4920   -3.8820 c         1 MOL      0.700022
     96 O16        -5.0510   -1.2460   -4.9420 o         1 MOL     -0.597983
     97 C32        -1.9590   -1.6710   -4.6220 c3        1 MOL      0.243997
     98 C33        -0.6330   -2.5050   -4.6530 c3        1 MOL     -0.238369
     99 C34        -1.6660   -0.3820   -3.9770 c3        1 MOL     -0.238369
    100 H41        -2.7000   -2.2900   -1.8520 hn        1 MOL      0.265111
    101 H42        -3.5250   -3.1480   -4.6120 h1        1 MOL      0.112421
    102 H43        -2.2430   -1.4430   -5.6420 hc        1 MOL     -0.017677
    103 H44         0.1010   -2.0270   -5.2900 hc        1 MOL      0.058376
    104 H45        -0.2660   -2.6430   -3.6340 hc        1 MOL      0.058376
    105 H46        -0.9730   -3.4600   -5.0620 hc        1 MOL      0.058376
    106 H47        -0.8810    0.1800   -4.4690 hc        1 MOL      0.058376
    107 H48        -2.5850    0.1880   -3.8730 hc        1 MOL      0.058376
    108 H49        -1.3690   -0.4830   -2.9260 hc        1 MOL      0.058376
    109 N10        -5.0070   -1.2020   -2.6950 n         1 MOL     -0.509573
    110 C35        -6.3590   -0.6930   -2.5380 c3        1 MOL      0.325553
    111 C36        -6.4830    0.5890   -1.7120 c         1 MOL      0.315364
    112 O17        -7.1900    1.5010   -2.1750 o         1 MOL     -0.546324
    113 C37        -7.1790   -1.8540   -1.8590 c3        1 MOL     -0.489843
    114 C38        -6.5680   -2.5760   -0.6690 c         1 MOL      0.593047
    115 N11        -7.2580   -3.4970   -0.0960 n         1 MOL     -0.673954
    116 O18        -5.5460   -2.1960   -0.1750 o         1 MOL     -0.495850
    117 H50        -4.5120   -1.4900   -1.8730 hn        1 MOL      0.141731
    118 H51        -6.7690   -0.5850   -3.5410 h1        1 MOL      0.051986
    119 H52        -7.2670   -2.5590   -2.6910 hc        1 MOL      0.147205
    120 H53        -8.1330   -1.4950   -1.4790 hc        1 MOL      0.147205
    121 H54        -8.0650   -3.9230   -0.5280 hn        1 MOL      0.346118
    122 H55        -6.9330   -3.9420    0.7510 hn        1 MOL      0.346118
    123 N12        -5.9210    0.6160   -0.5370 n         1 MOL     -0.087258
    124 C39        -5.9350    1.8280    0.3050 c3        1 MOL     -0.045354
    125 C40        -4.5790    2.5380    0.4700 c         1 MOL      0.633585
    126 O19        -3.5430    2.0770    0.0070 o         1 MOL     -0.566263
    127 C41        -6.6480    1.4560    1.6710 c3        1 MOL     -0.178127
    128 C42        -7.9570    0.6610    1.4750 ca        1 MOL     -0.098992
    129 C43        -8.0060   -0.7340    1.8650 ca        1 MOL     -0.005906
    130 C44        -9.1280    1.2240    0.9500 ca        1 MOL     -0.005906
    131 C45        -9.2320   -1.4560    1.6380 ca        1 MOL     -0.385565
    132 C46       -10.3070    0.5140    0.7330 ca        1 MOL     -0.385565
    133 C47       -10.3250   -0.8730    1.0220 ca        1 MOL      0.450962
    134 O20       -11.4210   -1.6190    0.7520 oh        1 MOL     -0.542124
    135 H56        -5.2310   -0.1030   -0.3500 hn        1 MOL      0.201304
    136 H57        -6.5530    2.5450   -0.2380 h1        1 MOL      0.071686
    137 H58        -6.9350    2.3360    2.2430 hc        1 MOL      0.114529
    138 H59        -6.1030    0.8420    2.3940 hc        1 MOL      0.114529
    139 H60        -7.1530   -1.0970    2.4120 ha        1 MOL      0.106423
    140 H61        -9.1130    2.2870    0.7160 ha        1 MOL      0.106423
    141 H62        -9.3040   -2.5090    1.8730 ha        1 MOL      0.154724
    142 H63       -11.1850    0.9790    0.3210 ha        1 MOL      0.154724
    143 H64       -12.0420   -1.1280    0.2030 ho        1 MOL      0.372858
    144 N13        -4.6620    3.7360    1.0340 n         1 MOL     -0.562875
    145 C48        -3.7490    4.7570    1.4830 c3        1 MOL      0.147709
    146 C49        -2.4900    5.1160    0.5760 c         1 MOL      0.099878
    147 O21        -1.9620    6.2690    0.6750 o         1 MOL     -0.514137
    148 C50        -3.2800    4.3200    2.8960 c3        1 MOL     -0.003586
    149 C51        -4.4140    4.4200    3.9250 c3        1 MOL     -0.326446
    150 C52        -3.7940    4.8150    5.2560 c         1 MOL      0.695694
    151 O22        -3.2460    4.0040    6.0980 o         1 MOL     -0.725886
    152 O23        -3.6720    6.0250    5.6140 o         1 MOL     -0.725886
    153 H65        -5.6190    4.0260    1.2080 hn        1 MOL      0.305884
    154 H66        -4.2210    5.7320    1.5630 h1        1 MOL      0.093223
    155 H67        -2.4600    5.0120    3.0990 hc        1 MOL      0.087695
    156 H68        -2.8190    3.3380    3.0090 hc        1 MOL      0.087695
    157 H69        -5.0160    3.5270    4.1160 hc        1 MOL      0.028755
    158 H70        -5.1000    5.2160    3.6560 hc        1 MOL      0.028755
    159 N14        -1.9370    4.2990   -0.3130 n         1 MOL      0.268359
    160 C53        -0.8070    4.5520   -1.2040 c3        1 MOL     -0.206573
    161 C54        -1.1320    5.5860   -2.2970 c         1 MOL      0.370243
    162 O24        -0.2550    6.1740   -2.9420 o         1 MOL     -0.521090
    163 C55        -0.3660    3.1770   -1.9120 c3        1 MOL     -0.050460
    164 C56        -0.0020    2.0170   -1.0570 c3        1 MOL      0.137753
    165 C57         0.7950    2.3320    0.2400 c         1 MOL      0.470083
    166 O25         2.0520    2.2470    0.1490 o         1 MOL     -0.641405
    167 O26         0.2790    2.7110    1.3220 o         1 MOL     -0.641405
    168 H71        -2.3360    3.3690   -0.2810 hn        1 MOL      0.037585
    169 H72         0.0380    5.0390   -0.7120 h1        1 MOL      0.180446
    170 H73         0.4920    3.4070   -2.5520 hc        1 MOL      0.010261
    171 H74        -1.0990    2.7470   -2.6000 hc        1 MOL      0.010261
    172 H75         0.4430    1.2670   -1.7150 hc        1 MOL     -0.020727
    173 H76        -0.9010    1.4770   -0.7830 hc        1 MOL     -0.020727
    174 N15        -2.3940    5.8600   -2.5800 n         1 MOL     -0.063563
    175 C58        -2.9670    6.7830   -3.5280 c3        1 MOL     -0.343957
    176 H77        -4.0510    6.7940   -3.4130 h1        1 MOL      0.120315
    177 H78        -2.5730    7.7830   -3.3460 h1        1 MOL      0.120315
    178 H79        -2.7120    6.4700   -4.5400 h1        1 MOL      0.120315
    179 H80        -3.0590    5.2340   -2.1450 hn        1 MOL      0.142389
    180 Ca1         4.2980    2.3020    1.2120 Ca        1 MOL      1.823844
    181 O27         5.1360    3.2120    3.8040 oh        1 MOL     -0.837314
    182 H81         4.3050    3.6650    3.9550 ho        1 MOL      0.407747
    183 H82         5.2620    2.6780    4.5930 ho        1 MOL      0.407747
    184 O28         2.3630    2.2450    3.0870 oh        1 MOL     -0.837314
    185 H83         2.3770    2.2170    4.0390 ho        1 MOL      0.407747
    186 H84         1.4620    2.4550    2.8610 ho        1 MOL      0.407747
    187 O29         5.7730    0.4730    2.6400 oh        1 MOL     -0.837314
    188 H85         6.6540    0.6490    2.9830 ho        1 MOL      0.407747
    189 H86         5.6880   -0.4700    2.6700 ho        1 MOL      0.407747
    190 O30         3.5850    4.8480    1.7380 oh        1 MOL     -0.837314
    191 H87         3.9400    5.7160    1.5330 ho        1 MOL      0.407747
    192 H88         2.6760    5.0070    1.9880 ho        1 MOL      0.407747
@<TRIPOS>BOND
     1    1    2 1   
     2    1    4 1   
     3    1    5 1   
     4    1    6 1   
     5    2    3 2   
     6    2    7 1   
     7    7    8 1   
     8    7   15 1   
     9    8    9 1   
    10    8   11 1   
    11    8   16 1   
    12    9   10 2   
    13    9   19 1   
    14   11   12 1   
    15   11   17 1   
    16   11   18 1   
    17   12   13 1   
    18   12   14 1   
    19   19   20 1   
    20   19   27 1   
    21   20   21 1   
    22   20   23 1   
    23   20   28 1   
    24   21   22 2   
    25   21   38 1   
    26   23   24 1   
    27   23   25 1   
    28   23   29 1   
    29   24   26 1   
    30   24   30 1   
    31   24   31 1   
    32   25   32 1   
    33   25   33 1   
    34   25   34 1   
    35   26   35 1   
    36   26   36 1   
    37   26   37 1   
    38   38   39 1   
    39   38   46 1   
    40   39   40 1   
    41   39   42 1   
    42   39   47 1   
    43   40   41 2   
    44   40   50 1   
    45   42   43 1   
    46   42   48 1   
    47   42   49 1   
    48   43   44 1   
    49   43   45 1   
    50   50   51 1   
    51   50   54 1   
    52   51   52 1   
    53   51   55 1   
    54   51   56 1   
    55   52   53 2   
    56   52   57 1   
    57   57   58 1   
    58   57   65 1   
    59   58   59 1   
    60   58   61 1   
    61   58   66 1   
    62   59   60 2   
    63   59   69 1   
    64   61   62 1   
    65   61   67 1   
    66   61   68 1   
    67   62   63 1   
    68   62   64 1   
    69   69   70 1   
    70   69   73 1   
    71   70   71 1   
    72   70   74 1   
    73   70   75 1   
    74   71   72 2   
    75   71   76 1   
    76   76   77 1   
    77   76   85 1   
    78   77   78 1   
    79   77   80 1   
    80   77   86 1   
    81   78   79 2   
    82   78   93 1   
    83   80   81 1   
    84   80   87 1   
    85   80   88 1   
    86   81   82 1   
    87   81   89 1   
    88   81   90 1   
    89   82   83 1   
    90   82   84 2   
    91   83   91 1   
    92   83   92 1   
    93   93   94 1   
    94   93  100 1   
    95   94   95 1   
    96   94   97 1   
    97   94  101 1   
    98   95   96 2   
    99   95  109 1   
   100   97   98 1   
   101   97   99 1   
   102   97  102 1   
   103   98  103 1   
   104   98  104 1   
   105   98  105 1   
   106   99  106 1   
   107   99  107 1   
   108   99  108 1   
   109  109  110 1   
   110  109  117 1   
   111  110  111 1   
   112  110  113 1   
   113  110  118 1   
   114  111  112 2   
   115  111  123 1   
   116  113  114 1   
   117  113  119 1   
   118  113  120 1   
   119  114  115 1   
   120  114  116 2   
   121  115  121 1   
   122  115  122 1   
   123  123  124 1   
   124  123  135 1   
   125  124  125 1   
   126  124  127 1   
   127  124  136 1   
   128  125  126 2   
   129  125  144 1   
   130  127  128 1   
   131  127  137 1   
   132  127  138 1   
   133  128  129 ar  
   134  128  130 ar  
   135  129  131 ar  
   136  129  139 1   
   137  130  132 ar  
   138  130  140 1   
   139  131  133 ar  
   140  131  141 1   
   141  132  133 ar  
   142  132  142 1   
   143  133  134 1   
   144  134  143 1   
   145  144  145 1   
   146  144  153 1   
   147  145  146 1   
   148  145  148 1   
   149  145  154 1   
   150  146  147 2   
   151  146  159 1   
   152  148  149 1   
   153  148  155 1   
   154  148  156 1   
   155  149  150 1   
   156  149  157 1   
   157  149  158 1   
   158  150  151 1   
   159  150  152 1   
   160  159  160 1   
   161  159  168 1   
   162  160  161 1   
   163  160  163 1   
   164  160  169 1   
   165  161  162 2   
   166  161  174 1   
   167  163  164 1   
   168  163  170 1   
   169  163  171 1   
   170  164  165 1   
   171  164  172 1   
   172  164  173 1   
   173  165  166 1   
   174  165  167 1   
   175  174  175 1   
   176  174  179 1   
   177  175  176 1   
   178  175  177 1   
   179  175  178 1   
   180  181  182 1   
   181  181  183 1   
   182  184  185 1   
   183  184  186 1   
   184  187  188 1   
   185  187  189 1   
   186  190  191 1   
   187  190  192 1   
@<TRIPOS>SUBSTRUCTURE
     1 MOL         1 TEMP              0 ****  ****    0 ROOT
