@<TRIPOS>MOLECULE
MOL
  181   177     1     0     0
SMALL
resp


@<TRIPOS>ATOM
      1 C1         11.5190    5.5490   -0.7280 c3        1 MOL     -0.300869
      2 C2         10.4000    4.7110   -0.1020 c         1 MOL      0.784552
      3 O1          9.5210    5.2380    0.5390 o         1 MOL     -0.588885
      4 H1         11.0990    6.2000   -1.4950 hc        1 MOL      0.065979
      5 H2         11.9930    6.1560    0.0430 hc        1 MOL      0.065979
      6 H3         12.2600    4.8890   -1.1790 hc        1 MOL      0.065979
      7 N1         10.3790    3.3680   -0.2480 n         1 MOL     -0.768593
      8 C3         11.0660    2.4910   -1.2130 c3        1 MOL      0.342622
      9 C4         11.4630    1.1360   -0.5560 c         1 MOL      0.437896
     10 O2         11.2330    1.0010    0.6500 o         1 MOL     -0.433664
     11 C5         10.1360    2.2880   -2.4230 c3        1 MOL     -0.075169
     12 C6          8.9190    1.4800   -2.0700 c         1 MOL      0.723393
     13 O3          8.8250    0.3600   -2.6270 o         1 MOL     -0.766755
     14 O4          8.0200    1.9090   -1.3230 o         1 MOL     -0.766755
     15 H4          9.6420    2.8530    0.2080 hn        1 MOL      0.427402
     16 H5         11.9100    3.0220   -1.6640 h1        1 MOL     -0.037500
     17 H6         10.7430    1.7010   -3.1080 hc        1 MOL     -0.015562
     18 H7          9.8460    3.1680   -2.9820 hc        1 MOL     -0.015562
     19 N2         12.0280    0.2250   -1.3440 n         1 MOL     -0.604744
     20 C7         12.4410   -1.1360   -0.9600 c3        1 MOL      0.389713
     21 C8         11.5140   -1.8700   -0.0330 c         1 MOL      0.443852
     22 O5         11.9490   -2.6590    0.8090 o         1 MOL     -0.526058
     23 C9         13.9300   -1.2330   -0.4070 c3        1 MOL     -0.411410
     24 H8         12.2220    0.5140   -2.2870 hn        1 MOL      0.324456
     25 H9         12.4010   -1.7710   -1.8480 h1        1 MOL     -0.001732
     26 H10        14.4910   -0.6520   -1.1330 hc        1 MOL      0.105036
     27 H11        14.0410   -0.6850    0.5240 hc        1 MOL      0.105036
     28 H12        14.2910   -2.2620   -0.3900 hc        1 MOL      0.105036
     29 N3         10.1180   -1.7310   -0.1350 n         1 MOL     -0.386213
     30 C10         9.1420   -2.5460    0.5640 c3        1 MOL      0.198482
     31 C11         8.0060   -2.9590   -0.4030 c         1 MOL      0.336946
     32 O6          7.7840   -2.4300   -1.5130 o         1 MOL     -0.560302
     33 C12         8.6230   -1.7890    1.8550 c3        1 MOL     -0.241155
     34 C13         7.9550   -0.4450    1.5890 c         1 MOL      0.788304
     35 O7          7.9930    0.4840    2.4920 o         1 MOL     -0.706025
     36 O8          7.3540   -0.3140    0.5230 o         1 MOL     -0.706025
     37 H13         9.8150   -0.9220   -0.6750 hn        1 MOL      0.164672
     38 H14         9.5690   -3.5070    0.8600 h1        1 MOL      0.025376
     39 H15         9.4340   -1.6230    2.5700 hc        1 MOL      0.056579
     40 H16         7.8450   -2.3720    2.3390 hc        1 MOL      0.056579
     41 N4          7.1540   -3.9020    0.0490 n         1 MOL     -0.236787
     42 C14         5.8420   -4.2690   -0.5650 c3        1 MOL     -0.234976
     43 C15         4.7740   -3.2710   -0.3650 c         1 MOL      0.733017
     44 O9          5.0660   -2.1160   -0.1460 o         1 MOL     -0.551341
     45 H17         7.5430   -4.4890    0.7790 hn        1 MOL      0.237274
     46 H18         5.5470   -5.2100   -0.1010 h1        1 MOL      0.106484
     47 H19         5.9880   -4.5750   -1.5980 h1        1 MOL      0.106484
     48 N5          3.5720   -3.8040   -0.5150 n         1 MOL     -0.655383
     49 C16         2.3230   -3.0500   -0.4070 c3        1 MOL      0.287051
     50 C17         2.0400   -2.3910    0.9930 c         1 MOL      0.539954
     51 O10         2.4010   -2.9790    2.0560 o         1 MOL     -0.541268
     52 C18         1.2180   -4.0560   -0.8270 c3        1 MOL     -0.452237
     53 C19        -0.2310   -3.4740   -0.7160 c         1 MOL      0.629406
     54 N6         -0.4550   -2.3500   -1.4150 n         1 MOL     -0.662821
     55 O11        -1.0670   -3.7910    0.1050 o         1 MOL     -0.525212
     56 H20         3.4270   -4.7710   -0.7480 hn        1 MOL      0.324388
     57 H21         2.2290   -2.2960   -1.1840 h1        1 MOL     -0.027323
     58 H22         1.3390   -4.9090   -0.1700 hc        1 MOL      0.136464
     59 H23         1.3710   -4.2790   -1.8860 hc        1 MOL      0.136464
     60 H24         0.1940   -2.1290   -2.1670 hn        1 MOL      0.314828
     61 H25        -1.3500   -1.9150   -1.2750 hn        1 MOL      0.314828
     62 N7          1.5030   -1.1690    1.0170 n         1 MOL     -0.325211
     63 C20         1.0930   -0.4970    2.2930 c3        1 MOL     -0.076322
     64 C21         1.0090    1.0380    2.0770 c         1 MOL      0.476486
     65 O12         1.0630    1.5340    0.9630 o         1 MOL     -0.528918
     66 H26         1.2950   -0.6800    0.1590 hn        1 MOL      0.244009
     67 H27         1.8990   -0.7580    2.9830 h1        1 MOL      0.128668
     68 H28         0.1320   -0.7830    2.7230 h1        1 MOL      0.128668
     69 N8          0.7020    1.8330    3.1060 n         1 MOL     -0.450831
     70 C22         0.0710    1.4880    4.4100 c3        1 MOL     -0.139104
     71 C23        -1.3220    1.0550    4.1570 c         1 MOL      0.547342
     72 O13        -1.9780    0.5120    5.0320 o         1 MOL     -0.576080
     73 C24         0.0000    2.6180    5.3950 c3        1 MOL      0.427887
     74 C25         1.4580    3.0810    5.8310 c3        1 MOL     -0.375457
     75 O14        -0.6100    3.6360    4.7420 oh        1 MOL     -0.606966
     76 H29         0.8320    2.8340    3.0120 hn        1 MOL      0.345470
     77 H30         0.5980    0.7270    4.9750 h1        1 MOL      0.099628
     78 H31        -0.5070    2.3020    6.3000 h1        1 MOL      0.000375
     79 H32        -1.2170    4.0320    5.3810 ho        1 MOL      0.403467
     80 H33         2.0530    2.1970    6.0410 hc        1 MOL      0.092728
     81 H34         1.8560    3.6180    4.9720 hc        1 MOL      0.092728
     82 H35         1.4650    3.7040    6.7340 hc        1 MOL      0.092728
     83 N9         -1.8700    1.1330    2.9530 n         1 MOL     -0.458727
     84 C26        -3.1530    0.5530    2.4980 c3        1 MOL      0.079521
     85 C27        -2.9790   -0.1330    1.0800 c         1 MOL      0.416878
     86 O15        -2.1460    0.3100    0.2760 o         1 MOL     -0.530849
     87 C28        -4.3470    1.5390    2.5770 c3        1 MOL      0.077370
     88 C29        -4.1070    2.8610    1.8350 c3        1 MOL      0.003603
     89 C30        -4.6360    1.7440    4.0590 c3        1 MOL     -0.202743
     90 C31        -5.2000    3.9070    2.1200 c3        1 MOL     -0.298662
     91 H36        -1.2630    1.3600    2.1670 hn        1 MOL      0.254222
     92 H37        -3.4830   -0.2330    3.1730 h1        1 MOL      0.138439
     93 H38        -5.2040    1.0220    2.1500 hc        1 MOL      0.088647
     94 H39        -3.9690    2.6630    0.7820 hc        1 MOL      0.030319
     95 H40        -3.2080    3.4170    2.1100 hc        1 MOL      0.030319
     96 H41        -5.6230    2.1920    4.1630 hc        1 MOL      0.051779
     97 H42        -4.7520    0.7910    4.5780 hc        1 MOL      0.051779
     98 H43        -3.8620    2.3630    4.4980 hc        1 MOL      0.051779
     99 H44        -6.2050    3.5090    2.0090 hc        1 MOL      0.067109
    100 H45        -4.9850    4.2470    3.1350 hc        1 MOL      0.067109
    101 H46        -5.0320    4.6850    1.3640 hc        1 MOL      0.067109
    102 N10        -3.6860   -1.1490    0.7690 n         1 MOL     -0.292810
    103 C32        -4.8760   -1.7920    1.3000 c3        1 MOL     -0.223362
    104 C33        -6.1200   -1.7020    0.3590 c         1 MOL      0.667353
    105 O16        -5.9540   -1.9720   -0.8710 o         1 MOL     -0.523277
    106 C34        -4.5350   -3.1750    1.6910 c3        1 MOL     -0.100217
    107 C35        -5.5960   -3.9540    2.4140 c         1 MOL      0.730743
    108 O17        -6.1480   -3.4180    3.4460 o         1 MOL     -0.731000
    109 O18        -5.7240   -5.1320    2.1090 o         1 MOL     -0.731000
    110 H47        -3.5260   -1.4530   -0.1890 hn        1 MOL      0.338948
    111 H48        -5.2650   -1.2300    2.1460 h1        1 MOL      0.007058
    112 H49        -3.6840   -3.1320    2.3730 hc        1 MOL      0.055872
    113 H50        -4.2170   -3.6250    0.7460 hc        1 MOL      0.055872
    114 N11        -7.3220   -1.4830    0.9610 n         1 MOL     -0.717108
    115 C36        -8.5350   -1.2750    0.1520 c3        1 MOL      0.505679
    116 C37        -9.4140   -0.0720    0.6730 c         1 MOL      0.191132
    117 O19        -9.4290    0.1580    1.9060 o         1 MOL     -0.497175
    118 C38        -9.3300   -2.6030    0.1160 c3        1 MOL     -0.080102
    119 C39       -10.6490   -2.6470   -0.6110 ca        1 MOL      0.070403
    120 C40       -11.8600   -2.2470   -0.0390 ca        1 MOL     -0.173574
    121 C41       -10.6910   -3.1020   -2.0000 ca        1 MOL     -0.173574
    122 C42       -13.0860   -2.1870   -0.7150 ca        1 MOL     -0.089710
    123 C43       -11.9370   -3.0580   -2.6100 ca        1 MOL     -0.089710
    124 C44       -13.1390   -2.6460   -2.0120 ca        1 MOL     -0.153246
    125 H51        -7.3840   -1.3070    1.9520 hn        1 MOL      0.366317
    126 H52        -8.2420   -1.0820   -0.8840 h1        1 MOL     -0.063953
    127 H53        -9.5610   -2.8650    1.1480 hc        1 MOL      0.051235
    128 H54        -8.6790   -3.3920   -0.2700 hc        1 MOL      0.051235
    129 H55       -11.8400   -1.8690    0.9690 ha        1 MOL      0.134513
    130 H56        -9.7860   -3.3560   -2.5150 ha        1 MOL      0.134513
    131 H57       -13.9320   -1.7900   -0.1930 ha        1 MOL      0.093202
    132 H58       -12.0640   -3.3660   -3.6270 ha        1 MOL      0.093202
    133 H59       -14.0410   -2.6000   -2.5990 ha        1 MOL      0.105096
    134 N12       -10.0290    0.6700   -0.2310 n         1 MOL     -0.013429
    135 C45       -10.0210    0.4870   -1.6710 c3        1 MOL     -0.052712
    136 C46        -8.9200    1.2780   -2.3960 c         1 MOL      0.486603
    137 O20        -8.6500    1.0990   -3.5890 o         1 MOL     -0.533778
    138 C47       -11.3080    1.0410   -2.1190 c3        1 MOL      0.050609
    139 C48       -11.8130    2.1040   -1.1640 c3        1 MOL      0.001240
    140 C49       -11.1650    1.5880    0.1260 c3        1 MOL     -0.139004
    141 H60       -10.0810   -0.5930   -1.8140 h1        1 MOL      0.085157
    142 H61       -11.2570    1.2840   -3.1840 hc        1 MOL     -0.007508
    143 H62       -12.0800    0.2650   -2.1020 hc        1 MOL     -0.007508
    144 H63       -11.3780    3.0570   -1.4750 hc        1 MOL      0.016592
    145 H64       -12.8850    2.2850   -1.1600 hc        1 MOL      0.016592
    146 H65       -10.8770    2.4760    0.6950 h1        1 MOL      0.072126
    147 H66       -11.9210    1.0650    0.7140 h1        1 MOL      0.072126
    148 N13        -8.2320    2.1380   -1.6410 n         1 MOL     -0.442444
    149 C50        -7.0560    2.8670   -2.1160 c3        1 MOL      0.232218
    150 C51        -7.0500    4.2950   -1.4220 c         1 MOL      0.401057
    151 O21        -7.9020    4.5760   -0.5900 o         1 MOL     -0.576901
    152 C52        -5.8260    2.1060   -1.5990 c3        1 MOL      0.190244
    153 C53        -5.3810    0.9030   -2.4760 c3        1 MOL     -0.167291
    154 C54        -4.8690    1.2620   -3.8920 c         1 MOL      0.679296
    155 O22        -5.5210    2.0680   -4.6130 o         1 MOL     -0.717679
    156 O23        -3.7310    0.8950   -4.2930 o         1 MOL     -0.717679
    157 H67        -8.6000    2.2620   -0.7150 hn        1 MOL      0.271800
    158 H68        -7.1860    3.0370   -3.1890 h1        1 MOL      0.084703
    159 H69        -6.0470    1.8830   -0.5550 hc        1 MOL     -0.061432
    160 H70        -4.9390    2.7390   -1.5750 hc        1 MOL     -0.061432
    161 H71        -6.2080    0.2330   -2.6940 hc        1 MOL      0.003387
    162 H72        -4.6810    0.2640   -1.9310 hc        1 MOL      0.003387
    163 N14        -6.2540    5.2800   -1.7930 n         1 MOL     -0.378864
    164 C55        -5.3690    5.3230   -2.9860 c3        1 MOL     -0.035433
    165 H73        -5.5610    6.2360   -3.5480 h1        1 MOL      0.048742
    166 H74        -4.3270    5.3040   -2.6670 h1        1 MOL      0.048742
    167 H75        -5.5700    4.4590   -3.6200 h1        1 MOL      0.048742
    168 H76        -6.1980    6.0940   -1.2060 hn        1 MOL      0.273481
    169 Ca1         6.4160   -0.2250   -1.7850 Ca        1 MOL      1.811006
    170 O24         5.7780   -2.0980   -3.4710 oh        1 MOL     -0.858577
    171 H77         5.3270   -2.9290   -3.3560 ho        1 MOL      0.421314
    172 H78         6.1200   -2.1270   -4.3600 ho        1 MOL      0.421314
    173 O25         3.8380   -0.2000   -2.4960 oh        1 MOL     -0.858577
    174 H79         3.6370   -0.4260   -3.4010 ho        1 MOL      0.421314
    175 H80         3.0170    0.1460   -2.1440 ho        1 MOL      0.421314
    176 O26         6.1470    1.2940   -3.9010 oh        1 MOL     -0.858577
    177 H81         6.9350    1.4480   -4.4190 ho        1 MOL      0.421314
    178 H82         5.5130    1.9140   -4.2570 ho        1 MOL      0.421314
    179 O27         4.4260    1.0490    0.1510 oh        1 MOL     -0.858577
    180 H83         4.8170    1.9130    0.2920 ho        1 MOL      0.421314
    181 H84         3.5180    1.1440    0.4290 ho        1 MOL      0.421314
@<TRIPOS>BOND
     1    1    2 1   
     2    1    4 1   
     3    1    5 1   
     4    1    6 1   
     5    2    3 2   
     6    2    7 1   
     7    7    8 1   
     8    7   15 1   
     9    8    9 1   
    10    8   11 1   
    11    8   16 1   
    12    9   10 2   
    13    9   19 1   
    14   11   12 1   
    15   11   17 1   
    16   11   18 1   
    17   12   13 1   
    18   12   14 1   
    19   19   20 1   
    20   19   24 1   
    21   20   21 1   
    22   20   23 1   
    23   20   25 1   
    24   21   22 2   
    25   21   29 1   
    26   23   26 1   
    27   23   27 1   
    28   23   28 1   
    29   29   30 1   
    30   29   37 1   
    31   30   31 1   
    32   30   33 1   
    33   30   38 1   
    34   31   32 2   
    35   31   41 1   
    36   33   34 1   
    37   33   39 1   
    38   33   40 1   
    39   34   35 1   
    40   34   36 1   
    41   41   42 1   
    42   41   45 1   
    43   42   43 1   
    44   42   46 1   
    45   42   47 1   
    46   43   44 2   
    47   43   48 1   
    48   48   49 1   
    49   48   56 1   
    50   49   50 1   
    51   49   52 1   
    52   49   57 1   
    53   50   51 2   
    54   50   62 1   
    55   52   53 1   
    56   52   58 1   
    57   52   59 1   
    58   53   54 1   
    59   53   55 2   
    60   54   60 1   
    61   54   61 1   
    62   62   63 1   
    63   62   66 1   
    64   63   64 1   
    65   63   67 1   
    66   63   68 1   
    67   64   65 2   
    68   64   69 1   
    69   69   70 1   
    70   69   76 1   
    71   70   71 1   
    72   70   73 1   
    73   70   77 1   
    74   71   72 2   
    75   71   83 1   
    76   73   74 1   
    77   73   75 1   
    78   73   78 1   
    79   74   80 1   
    80   74   81 1   
    81   74   82 1   
    82   75   79 1   
    83   83   84 1   
    84   83   91 1   
    85   84   85 1   
    86   84   87 1   
    87   84   92 1   
    88   85   86 2   
    89   85  102 1   
    90   87   88 1   
    91   87   89 1   
    92   87   93 1   
    93   88   90 1   
    94   88   94 1   
    95   88   95 1   
    96   89   96 1   
    97   89   97 1   
    98   89   98 1   
    99   90   99 1   
   100   90  100 1   
   101   90  101 1   
   102  102  103 1   
   103  102  110 1   
   104  103  104 1   
   105  103  106 1   
   106  103  111 1   
   107  104  105 2   
   108  104  114 1   
   109  106  107 1   
   110  106  112 1   
   111  106  113 1   
   112  107  108 1   
   113  107  109 1   
   114  114  115 1   
   115  114  125 1   
   116  115  116 1   
   117  115  118 1   
   118  115  126 1   
   119  116  117 2   
   120  116  134 1   
   121  118  119 1   
   122  118  127 1   
   123  118  128 1   
   124  119  120 ar  
   125  119  121 ar  
   126  120  122 ar  
   127  120  129 1   
   128  121  123 ar  
   129  121  130 1   
   130  122  124 ar  
   131  122  131 1   
   132  123  124 ar  
   133  123  132 1   
   134  124  133 1   
   135  134  135 1   
   136  134  140 1   
   137  135  136 1   
   138  135  138 1   
   139  135  141 1   
   140  136  137 2   
   141  136  148 1   
   142  138  139 1   
   143  138  142 1   
   144  138  143 1   
   145  139  140 1   
   146  139  144 1   
   147  139  145 1   
   148  140  146 1   
   149  140  147 1   
   150  148  149 1   
   151  148  157 1   
   152  149  150 1   
   153  149  152 1   
   154  149  158 1   
   155  150  151 2   
   156  150  163 1   
   157  152  153 1   
   158  152  159 1   
   159  152  160 1   
   160  153  154 1   
   161  153  161 1   
   162  153  162 1   
   163  154  155 1   
   164  154  156 1   
   165  163  164 1   
   166  163  168 1   
   167  164  165 1   
   168  164  166 1   
   169  164  167 1   
   170  170  171 1   
   171  170  172 1   
   172  173  174 1   
   173  173  175 1   
   174  176  177 1   
   175  176  178 1   
   176  179  180 1   
   177  179  181 1   
@<TRIPOS>SUBSTRUCTURE
     1 MOL         1 TEMP              0 ****  ****    0 ROOT
