@<TRIPOS>MOLECULE
MOL
  175   173     1     0     0
SMALL
resp


@<TRIPOS>ATOM
      1 C1         -6.4560    8.0210    2.0130 c3        1 MOL     -0.407673
      2 C2         -7.0050    7.1080    0.8900 c         1 MOL      0.707825
      3 O1         -6.8690    7.4710   -0.2760 o         1 MOL     -0.600700
      4 H1         -6.5000    9.0610    1.6890 hc        1 MOL      0.098673
      5 H2         -7.0600    7.8960    2.9130 hc        1 MOL      0.098673
      6 H3         -5.4220    7.7530    2.2290 hc        1 MOL      0.098673
      7 N1         -7.8290    6.1050    1.1710 n         1 MOL     -0.582044
      8 C3         -8.5630    5.2950    0.2220 c3        1 MOL      0.497833
      9 C4         -7.8140    3.9800   -0.2470 c         1 MOL      0.428463
     10 O2         -8.3040    2.8400   -0.1290 o         1 MOL     -0.482269
     11 C5         -9.8960    4.9540    0.9390 c3        1 MOL     -0.411458
     12 C6        -10.9020    4.3000    0.0290 c         1 MOL      0.801051
     13 O3        -11.7550    3.5420    0.5300 o         1 MOL     -0.756490
     14 O4        -10.8230    4.5850   -1.1890 o         1 MOL     -0.756490
     15 H4         -7.8330    5.8020    2.1320 hn        1 MOL      0.263850
     16 H5         -8.7930    5.9080   -0.6510 h1        1 MOL     -0.025424
     17 H6        -10.3900    5.8630    1.2880 hc        1 MOL      0.054397
     18 H7         -9.5810    4.1710    1.6340 hc        1 MOL      0.054397
     19 N2         -6.5280    4.1810   -0.6290 n         1 MOL     -0.597179
     20 C7         -5.6770    3.3020   -1.2670 c3        1 MOL      0.348103
     21 C8         -4.8920    2.4770   -0.2380 c         1 MOL      0.595117
     22 O5         -4.3380    3.0740    0.6730 o         1 MOL     -0.586685
     23 C9         -4.7490    3.9790   -2.2900 c3        1 MOL     -0.329806
     24 H8         -6.1930    5.0870   -0.3430 hn        1 MOL      0.270160
     25 H9         -6.2520    2.5700   -1.8510 h1        1 MOL      0.037577
     26 H10        -4.0080    4.5860   -1.7630 hc        1 MOL      0.084660
     27 H11        -4.2570    3.3520   -3.0380 hc        1 MOL      0.084660
     28 H12        -5.3250    4.7010   -2.8690 hc        1 MOL      0.084660
     29 N3         -4.8160    1.1760   -0.2450 n         1 MOL     -0.474392
     30 C10        -5.4250    0.1660   -1.1800 c3        1 MOL     -0.022815
     31 C11        -5.6300   -1.2770   -0.5560 c         1 MOL      0.426688
     32 O6         -4.7760   -1.7290    0.1950 o         1 MOL     -0.459337
     33 C12        -4.5930   -0.1220   -2.5030 c3        1 MOL     -0.317845
     34 C13        -3.1060   -0.5350   -2.2450 c         1 MOL      0.838150
     35 O7         -2.7460   -1.7230   -2.4910 o         1 MOL     -0.757008
     36 O8         -2.3260    0.1610   -1.6470 o         1 MOL     -0.757008
     37 H13        -4.1730    0.7840    0.4230 hn        1 MOL      0.295802
     38 H14        -6.4160    0.4660   -1.5060 h1        1 MOL      0.084887
     39 H15        -4.5540    0.8110   -3.0680 hc        1 MOL      0.071867
     40 H16        -5.1690   -0.9080   -2.9890 hc        1 MOL      0.071867
     41 N4         -6.7550   -1.9800   -0.9030 n         1 MOL     -0.332727
     42 C14        -6.8790   -3.3830   -0.4990 c3        1 MOL      0.038522
     43 C15        -6.5990   -4.4830   -1.5430 c         1 MOL      0.490949
     44 O9         -7.5230   -4.9360   -2.2070 o         1 MOL     -0.547446
     45 H17        -7.5280   -1.4440   -1.2450 hn        1 MOL      0.292083
     46 H18        -7.9340   -3.5010   -0.2840 h1        1 MOL      0.046255
     47 H19        -6.4550   -3.4920    0.4980 h1        1 MOL      0.046255
     48 N5         -5.3780   -5.0380   -1.6760 n         1 MOL     -0.402531
     49 C16        -4.1800   -4.6480   -1.0640 c3        1 MOL     -0.092144
     50 C17        -4.0880   -5.2800    0.3840 c         1 MOL      0.497420
     51 O10        -4.0790   -6.5020    0.6110 o         1 MOL     -0.517146
     52 C18        -3.0930   -5.1390   -2.0190 c3        1 MOL     -0.005798
     53 C19        -1.7120   -4.5790   -1.7250 c         1 MOL      0.541983
     54 N6         -0.7010   -4.8050   -2.6100 n         1 MOL     -0.684866
     55 O11        -1.5640   -3.7430   -0.8410 o         1 MOL     -0.580326
     56 H20        -5.3400   -5.8430   -2.2910 hn        1 MOL      0.287500
     57 H21        -4.1170   -3.5590   -1.0290 h1        1 MOL      0.200503
     58 H22        -3.3870   -4.9260   -3.0480 hc        1 MOL      0.031587
     59 H23        -2.9700   -6.2130   -1.9130 hc        1 MOL      0.031587
     60 H24        -0.9350   -5.2880   -3.4570 hn        1 MOL      0.341115
     61 H25         0.1180   -4.2480   -2.4270 hn        1 MOL      0.341115
     62 N7         -3.9260   -4.4580    1.4440 n         1 MOL     -0.262660
     63 C20        -3.4440   -4.8590    2.7660 c3        1 MOL     -0.175759
     64 C21        -1.9630   -5.2780    2.7410 c         1 MOL      0.495549
     65 O12        -1.5810   -6.2170    3.4710 o         1 MOL     -0.564005
     66 H26        -3.8090   -3.4770    1.2280 hn        1 MOL      0.204581
     67 H27        -4.0320   -5.6840    3.1610 h1        1 MOL      0.100888
     68 H28        -3.5580   -4.0170    3.4570 h1        1 MOL      0.100888
     69 N8         -1.0760   -4.6220    2.0010 n         1 MOL     -0.049123
     70 C22         0.4080   -4.5820    2.2970 c3        1 MOL     -0.180313
     71 C23         1.0660   -3.1730    2.1320 c         1 MOL      0.159918
     72 O13         0.6080   -2.4780    1.2580 o         1 MOL     -0.252219
     73 C24         1.1790   -5.5880    1.4310 c3        1 MOL      0.426392
     74 C25         0.8480   -7.0440    1.6970 c3        1 MOL     -0.574459
     75 O14         0.8060   -5.3920    0.1620 oh        1 MOL     -0.499838
     76 H29        -1.4780   -3.9650    1.3430 hn        1 MOL      0.071976
     77 H30         0.5600   -4.8040    3.3570 h1        1 MOL      0.067511
     78 H31         2.2290   -5.3970    1.6600 h1        1 MOL     -0.020265
     79 H32         1.0130   -4.4750   -0.0380 ho        1 MOL      0.257287
     80 H33        -0.1520   -7.2460    1.3270 hc        1 MOL      0.151421
     81 H34         1.5390   -7.5900    1.0630 hc        1 MOL      0.151421
     82 H35         0.9180   -7.3450    2.7460 hc        1 MOL      0.151421
     83 N9          2.1820   -2.9640    2.8190 n         1 MOL     -0.091799
     84 C26         3.1500   -1.9690    2.5040 c3        1 MOL     -0.076809
     85 C27         4.0850   -2.5550    1.4330 c         1 MOL      0.263661
     86 O15         5.1430   -3.1080    1.7420 o         1 MOL     -0.545336
     87 C28         3.8970   -1.4890    3.8060 c3        1 MOL      0.078182
     88 C29         4.9060   -0.3710    3.4530 c3        1 MOL      0.584679
     89 C30         2.9200   -0.9670    4.8610 c3        1 MOL     -0.436881
     90 C31         6.0010   -0.0670    4.4610 c3        1 MOL     -0.242174
     91 H36         2.5070   -3.6640    3.4690 hn        1 MOL      0.247101
     92 H37         2.5980   -1.1260    2.0970 h1        1 MOL      0.073749
     93 H38         4.4060   -2.3160    4.3050 hc        1 MOL     -0.001774
     94 H39         4.3670    0.5430    3.2120 hc        1 MOL     -0.175825
     95 H40         5.4280   -0.6420    2.5350 hc        1 MOL     -0.175825
     96 H41         2.3550   -1.8470    5.1660 hc        1 MOL      0.098182
     97 H42         3.3890   -0.3790    5.6440 hc        1 MOL      0.098182
     98 H43         2.2030   -0.2910    4.3780 hc        1 MOL      0.098182
     99 H44         6.4690   -0.9690    4.8470 hc        1 MOL      0.029274
    100 H45         6.7240    0.5870    3.9710 hc        1 MOL      0.029274
    101 H46         5.5270    0.5330    5.2430 hc        1 MOL      0.029274
    102 N10         3.7120   -2.3410    0.1320 n         1 MOL     -0.012040
    103 C32         4.5100   -2.7820   -0.9890 c3        1 MOL      0.108987
    104 C33         5.2940   -1.6860   -1.6310 c         1 MOL      0.683534
    105 O16         5.4050   -1.7150   -2.8050 o         1 MOL     -0.560759
    106 C34         3.7380   -3.8000   -1.8890 c3        1 MOL     -0.150778
    107 C35         2.3460   -3.3950   -2.2860 c         1 MOL      0.556542
    108 O17         1.5070   -2.9920   -1.3440 o         1 MOL     -0.594180
    109 O18         2.0030   -3.6000   -3.4650 o         1 MOL     -0.594180
    110 H47         2.8210   -1.9100   -0.0640 hn        1 MOL      0.006366
    111 H48         5.3470   -3.4200   -0.6740 h1        1 MOL      0.018355
    112 H49         3.6200   -4.7340   -1.3310 hc        1 MOL      0.047430
    113 H50         4.3470   -3.9820   -2.7790 hc        1 MOL      0.047430
    114 N11         5.7840   -0.7330   -0.8270 n         1 MOL     -0.781511
    115 C36         6.6440    0.4050   -1.1510 c3        1 MOL      0.604284
    116 C37         6.2380    1.8120   -0.6340 c         1 MOL      0.347824
    117 O19         6.1050    1.9200    0.6050 o         1 MOL     -0.519605
    118 C38         8.1300    0.0830   -0.8730 c3        1 MOL     -0.375998
    119 C39         9.1540    1.1820   -1.2640 ca        1 MOL      0.139728
    120 C40         9.4640    2.1200   -0.2230 ca        1 MOL     -0.167787
    121 C41         9.8470    1.1280   -2.4770 ca        1 MOL     -0.167787
    122 C42        10.4600    3.0360   -0.5370 ca        1 MOL     -0.096592
    123 C43        10.6560    2.2250   -2.8270 ca        1 MOL     -0.096592
    124 C44        11.0430    3.1780   -1.8200 ca        1 MOL     -0.149840
    125 H51         5.4710   -0.7790    0.1370 hn        1 MOL      0.327129
    126 H52         6.5810    0.5110   -2.2360 h1        1 MOL     -0.087902
    127 H53         8.3480   -0.8610   -1.3680 hc        1 MOL      0.125520
    128 H54         8.2110   -0.0770    0.2040 hc        1 MOL      0.125520
    129 H55         8.8570    2.0560    0.6680 ha        1 MOL      0.127788
    130 H56         9.4860    0.5050   -3.2840 ha        1 MOL      0.127788
    131 H57        10.7210    3.7650    0.2110 ha        1 MOL      0.097233
    132 H58        11.1590    2.1610   -3.7810 ha        1 MOL      0.097233
    133 H59        11.6880    4.0000   -2.0870 ha        1 MOL      0.117318
    134 N12         6.1770    2.9130   -1.4520 n         1 MOL     -0.223671
    135 C45         6.0960    4.2740   -0.9600 c3        1 MOL     -0.041409
    136 C46         4.8240    4.6220   -0.1020 c         1 MOL      0.375340
    137 O20         4.7520    5.7040    0.3860 o         1 MOL     -0.534173
    138 C47         6.0670    5.1550   -2.1840 c3        1 MOL      0.028554
    139 C48         6.8890    4.3990   -3.2930 c3        1 MOL     -0.222733
    140 C49         6.3950    2.9660   -2.9400 c3        1 MOL      0.071891
    141 H60         6.9690    4.4560   -0.3380 h1        1 MOL      0.108398
    142 H61         5.0440    5.3200   -2.5240 hc        1 MOL      0.044555
    143 H62         6.5230    6.1310   -2.0150 hc        1 MOL      0.044555
    144 H63         6.5110    4.8170   -4.2310 hc        1 MOL      0.084359
    145 H64         7.9460    4.4970   -3.0400 hc        1 MOL      0.084359
    146 H65         5.4840    2.6730   -3.4620 h1        1 MOL      0.041891
    147 H66         7.1820    2.2920   -3.2840 h1        1 MOL      0.041891
    148 N13         3.8800    3.7320    0.1310 n         1 MOL     -0.210024
    149 C50         2.6290    4.1670    0.8140 c3        1 MOL     -0.212997
    150 C51         2.9390    4.6650    2.2690 c         1 MOL      0.515380
    151 O21         2.0940    5.3250    2.8720 o         1 MOL     -0.546943
    152 C52         1.6080    2.9920    0.7750 c3        1 MOL     -0.021530
    153 C53         2.0940    1.6970    1.5010 c3        1 MOL     -0.104329
    154 C54         1.1980    0.6770    0.7620 c         1 MOL      0.647676
    155 O22         1.7180   -0.1430    0.0180 o         1 MOL     -0.716919
    156 O23        -0.0200    0.6340    0.9570 o         1 MOL     -0.716919
    157 H67         3.9510    2.7830   -0.2080 hn        1 MOL      0.226086
    158 H68         2.2820    5.0740    0.3120 h1        1 MOL      0.154281
    159 H69         1.5800    2.7170   -0.2890 hc        1 MOL      0.058607
    160 H70         0.5950    3.2220    1.0860 hc        1 MOL      0.058607
    161 H71         1.8760    1.7440    2.5700 hc        1 MOL      0.050543
    162 H72         3.1290    1.4360    1.3050 hc        1 MOL      0.050543
    163 N14         4.1140    4.3590    2.8040 n         1 MOL     -0.140755
    164 C55         4.4920    4.7280    4.1530 c3        1 MOL     -0.206955
    165 H73         4.5520    3.8330    4.7700 h1        1 MOL      0.085045
    166 H74         5.4630    5.2230    4.1360 h1        1 MOL      0.085045
    167 H75         3.7460    5.4060    4.5670 h1        1 MOL      0.085045
    168 H76         4.8040    3.9930    2.1670 hn        1 MOL      0.217588
    169 Ca1        -0.4230   -1.4340   -0.7900 Ca        1 MOL      1.689147
    170 O24        -2.2990   -1.3130    1.2170 oh        1 MOL     -0.855739
    171 H77        -2.2080   -0.5670    1.8040 ho        1 MOL      0.417442
    172 H78        -3.2350   -1.3590    1.0280 ho        1 MOL      0.417442
    173 O25         0.2190   -0.5110   -3.3420 oh        1 MOL     -0.855739
    174 H79         0.9460    0.1050   -3.2060 ho        1 MOL      0.417442
    175 H80        -0.0890   -0.3300   -4.2260 ho        1 MOL      0.417442
@<TRIPOS>BOND
     1    1    2 1   
     2    1    4 1   
     3    1    5 1   
     4    1    6 1   
     5    2    3 2   
     6    2    7 1   
     7    7    8 1   
     8    7   15 1   
     9    8    9 1   
    10    8   11 1   
    11    8   16 1   
    12    9   10 2   
    13    9   19 1   
    14   11   12 1   
    15   11   17 1   
    16   11   18 1   
    17   12   13 1   
    18   12   14 1   
    19   19   20 1   
    20   19   24 1   
    21   20   21 1   
    22   20   23 1   
    23   20   25 1   
    24   21   22 2   
    25   21   29 1   
    26   23   26 1   
    27   23   27 1   
    28   23   28 1   
    29   29   30 1   
    30   29   37 1   
    31   30   31 1   
    32   30   33 1   
    33   30   38 1   
    34   31   32 2   
    35   31   41 1   
    36   33   34 1   
    37   33   39 1   
    38   33   40 1   
    39   34   35 1   
    40   34   36 1   
    41   41   42 1   
    42   41   45 1   
    43   42   43 1   
    44   42   46 1   
    45   42   47 1   
    46   43   44 2   
    47   43   48 1   
    48   48   49 1   
    49   48   56 1   
    50   49   50 1   
    51   49   52 1   
    52   49   57 1   
    53   50   51 2   
    54   50   62 1   
    55   52   53 1   
    56   52   58 1   
    57   52   59 1   
    58   53   54 1   
    59   53   55 2   
    60   54   60 1   
    61   54   61 1   
    62   62   63 1   
    63   62   66 1   
    64   63   64 1   
    65   63   67 1   
    66   63   68 1   
    67   64   65 2   
    68   64   69 1   
    69   69   70 1   
    70   69   76 1   
    71   70   71 1   
    72   70   73 1   
    73   70   77 1   
    74   71   72 2   
    75   71   83 1   
    76   73   74 1   
    77   73   75 1   
    78   73   78 1   
    79   74   80 1   
    80   74   81 1   
    81   74   82 1   
    82   75   79 1   
    83   83   84 1   
    84   83   91 1   
    85   84   85 1   
    86   84   87 1   
    87   84   92 1   
    88   85   86 2   
    89   85  102 1   
    90   87   88 1   
    91   87   89 1   
    92   87   93 1   
    93   88   90 1   
    94   88   94 1   
    95   88   95 1   
    96   89   96 1   
    97   89   97 1   
    98   89   98 1   
    99   90   99 1   
   100   90  100 1   
   101   90  101 1   
   102  102  103 1   
   103  102  110 1   
   104  103  104 1   
   105  103  106 1   
   106  103  111 1   
   107  104  105 2   
   108  104  114 1   
   109  106  107 1   
   110  106  112 1   
   111  106  113 1   
   112  107  108 1   
   113  107  109 1   
   114  114  115 1   
   115  114  125 1   
   116  115  116 1   
   117  115  118 1   
   118  115  126 1   
   119  116  117 2   
   120  116  134 1   
   121  118  119 1   
   122  118  127 1   
   123  118  128 1   
   124  119  120 ar  
   125  119  121 ar  
   126  120  122 ar  
   127  120  129 1   
   128  121  123 ar  
   129  121  130 1   
   130  122  124 ar  
   131  122  131 1   
   132  123  124 ar  
   133  123  132 1   
   134  124  133 1   
   135  134  135 1   
   136  134  140 1   
   137  135  136 1   
   138  135  138 1   
   139  135  141 1   
   140  136  137 2   
   141  136  148 1   
   142  138  139 1   
   143  138  142 1   
   144  138  143 1   
   145  139  140 1   
   146  139  144 1   
   147  139  145 1   
   148  140  146 1   
   149  140  147 1   
   150  148  149 1   
   151  148  157 1   
   152  149  150 1   
   153  149  152 1   
   154  149  158 1   
   155  150  151 2   
   156  150  163 1   
   157  152  153 1   
   158  152  159 1   
   159  152  160 1   
   160  153  154 1   
   161  153  161 1   
   162  153  162 1   
   163  154  155 1   
   164  154  156 1   
   165  163  164 1   
   166  163  168 1   
   167  164  165 1   
   168  164  166 1   
   169  164  167 1   
   170  170  171 1   
   171  170  172 1   
   172  173  174 1   
   173  173  175 1   
@<TRIPOS>SUBSTRUCTURE
     1 MOL         1 TEMP              0 ****  ****    0 ROOT
