@<TRIPOS>MOLECULE
MOL
  195   189     1     0     0
SMALL
resp


@<TRIPOS>ATOM
      1 C1          2.6910    3.4930    3.4320 c3        1 MOL     -0.266837
      2 C2          1.8270    3.6910    2.1860 c         1 MOL      0.678661
      3 O1          0.8560    2.9990    1.9510 o         1 MOL     -0.566068
      4 H1          3.7390    3.6560    3.1770 hc        1 MOL      0.056079
      5 H2          2.3900    4.2050    4.2000 hc        1 MOL      0.056079
      6 H3          2.5630    2.4780    3.8060 hc        1 MOL      0.056079
      7 N1          2.0340    4.7270    1.4100 n         1 MOL     -0.278084
      8 C3          1.4340    5.0120    0.1170 c3        1 MOL     -0.039221
      9 C4         -0.0580    5.2320    0.0540 c         1 MOL      0.708832
     10 O2         -0.7200    4.9650   -0.9690 o         1 MOL     -0.578136
     11 C5          2.0690    4.2280   -1.0170 c3        1 MOL     -0.313594
     12 C6          3.5460    4.2300   -0.9720 c         1 MOL      0.959699
     13 O3          4.2840    3.2020   -0.8580 o         1 MOL     -0.840775
     14 O4          4.1530    5.3060   -0.9990 o         1 MOL     -0.840775
     15 H4          2.7670    5.3570    1.6960 hn        1 MOL      0.152546
     16 H5          1.7770    6.0390    0.0310 h1        1 MOL      0.056679
     17 H6          1.6820    4.3760   -2.0280 hc        1 MOL      0.099035
     18 H7          1.8540    3.1760   -0.8530 hc        1 MOL      0.099035
     19 N2         -0.6090    5.7460    1.1770 n         1 MOL     -0.456706
     20 C7         -2.0780    5.9380    1.4310 c3        1 MOL     -0.267980
     21 C8         -2.6570    7.0350    0.4690 c         1 MOL      0.400446
     22 O5         -2.0140    7.9390   -0.0210 o         1 MOL     -0.551477
     23 C9         -2.1980    6.2370    2.9610 c3        1 MOL      0.210699
     24 C10        -1.5800    7.5870    3.5290 c3        1 MOL     -0.054774
     25 C11        -1.4800    5.0880    3.7280 c3        1 MOL     -0.052775
     26 C12        -2.2350    7.9800    4.8020 c3        1 MOL     -0.133449
     27 H8          0.0220    6.0490    1.9020 hn        1 MOL      0.240590
     28 H9         -2.6460    5.0470    1.1840 h1        1 MOL      0.196501
     29 H10        -3.2500    6.1590    3.2350 hc        1 MOL      0.070348
     30 H11        -1.8870    8.3930    2.8610 hc        1 MOL      0.038651
     31 H12        -0.4940    7.6050    3.5070 hc        1 MOL      0.038651
     32 H13        -1.9690    4.9800    4.6970 hc        1 MOL     -0.005748
     33 H14        -1.6210    4.1140    3.2480 hc        1 MOL     -0.005748
     34 H15        -0.4210    5.3270    3.8140 hc        1 MOL     -0.005748
     35 H16        -2.0760    7.1440    5.4880 hc        1 MOL      0.023232
     36 H17        -1.7840    8.9240    5.0890 hc        1 MOL      0.023232
     37 H18        -3.3210    8.0090    4.8510 hc        1 MOL      0.023232
     38 N3         -3.8920    6.9400    0.0180 n         1 MOL     -0.173575
     39 C13        -4.8970    5.9650    0.3250 c3        1 MOL     -0.205722
     40 C14        -4.6040    4.5210   -0.2340 c         1 MOL      0.442628
     41 O6         -5.1650    3.6040    0.3150 o         1 MOL     -0.513677
     42 C15        -6.2910    6.4310   -0.2430 c3        1 MOL     -0.010303
     43 C16        -6.5640    7.8920   -0.1580 c         1 MOL      0.642206
     44 O7         -6.5550    8.6210   -1.1640 o         1 MOL     -0.713305
     45 O8         -6.7260    8.3240    1.0020 o         1 MOL     -0.713305
     46 H19        -4.0110    7.5520   -0.7820 hn        1 MOL      0.258225
     47 H20        -4.9420    5.8150    1.4040 h1        1 MOL      0.075991
     48 H21        -7.1290    5.9150    0.2190 hc        1 MOL      0.009338
     49 H22        -6.3050    6.1310   -1.2820 hc        1 MOL      0.009338
     50 N4         -3.8620    4.3500   -1.3250 n         1 MOL     -0.099561
     51 C17        -3.5750    3.0570   -1.9160 c3        1 MOL     -0.492247
     52 C18        -4.7830    2.3200   -2.4280 c         1 MOL      0.658436
     53 O9         -5.8800    2.8420   -2.3590 o         1 MOL     -0.545669
     54 H23        -3.6630    5.1480   -1.9060 hn        1 MOL      0.240564
     55 H24        -3.1320    2.3910   -1.1720 h1        1 MOL      0.185718
     56 H25        -2.9740    3.1860   -2.8210 h1        1 MOL      0.185718
     57 N5         -4.6360    1.1040   -2.9100 n         1 MOL     -0.511605
     58 C19        -5.7910    0.2680   -3.4960 c3        1 MOL     -0.023911
     59 C20        -6.8660   -0.2120   -2.5440 c         1 MOL      0.372299
     60 O10        -7.9540   -0.6590   -2.8850 o         1 MOL     -0.550161
     61 C21        -5.1400   -0.9940   -4.0840 c3        1 MOL     -0.010446
     62 C22        -4.0710   -1.7810   -3.2550 c         1 MOL      0.693295
     63 O11        -2.9950   -2.1330   -3.7470 o         1 MOL     -0.673746
     64 O12        -4.3370   -2.0450   -2.0120 o         1 MOL     -0.673746
     65 H26        -3.7430    0.6360   -2.9130 hn        1 MOL      0.283715
     66 H27        -6.2800    0.7630   -4.3330 h1        1 MOL      0.106527
     67 H28        -4.6690   -0.8040   -5.0420 hc        1 MOL     -0.019697
     68 H29        -5.9050   -1.7290   -4.3280 hc        1 MOL     -0.019697
     69 N6         -6.5540   -0.1740   -1.2280 n         1 MOL     -0.040432
     70 C23        -7.3560   -0.6280   -0.0930 c3        1 MOL     -0.387096
     71 C24        -7.3040   -2.1210    0.2150 c         1 MOL      0.502438
     72 O13        -8.0380   -2.5440    1.1070 o         1 MOL     -0.579137
     73 H30        -5.6720    0.2980   -1.0670 hn        1 MOL      0.201477
     74 H31        -8.3710   -0.2610   -0.2230 h1        1 MOL      0.160849
     75 H32        -6.8900   -0.0070    0.6760 h1        1 MOL      0.160849
     76 N7         -6.5210   -2.9480   -0.5130 n         1 MOL      0.167650
     77 C25        -6.3880   -4.3900   -0.3400 c3        1 MOL      0.067187
     78 C26        -5.9940   -4.8140    1.0670 c         1 MOL      0.478433
     79 O14        -6.2480   -6.0010    1.4530 o         1 MOL     -0.526526
     80 C27        -7.3890   -5.2040   -1.1410 c3        1 MOL     -0.194833
     81 C28        -7.6960   -4.6460   -2.5720 c3        1 MOL     -0.010157
     82 C29        -8.6670   -5.5260   -3.3760 c         1 MOL      0.666212
     83 N8         -9.3810   -5.0370   -4.3160 n         1 MOL     -0.790963
     84 O15        -8.7500   -6.7240   -3.2110 o         1 MOL     -0.603109
     85 H33        -5.8300   -2.5070   -1.1150 hn        1 MOL     -0.103737
     86 H34        -5.4850   -4.5760   -0.9060 h1        1 MOL      0.119604
     87 H35        -8.3920   -5.0940   -0.7480 hc        1 MOL      0.049481
     88 H36        -6.9010   -6.1900   -1.1470 hc        1 MOL      0.049481
     89 H37        -6.7840   -4.5620   -3.1630 hc        1 MOL      0.026705
     90 H38        -8.2000   -3.6850   -2.4650 hc        1 MOL      0.026705
     91 H39        -9.3890   -4.0640   -4.5770 hn        1 MOL      0.346886
     92 H40        -9.9340   -5.6950   -4.8530 hn        1 MOL      0.346886
     93 N9         -5.2640   -3.9750    1.8130 n         1 MOL     -0.539676
     94 C30        -4.8130   -4.2470    3.1720 c3        1 MOL      0.067142
     95 C31        -3.2530   -4.1650    3.3290 c         1 MOL      0.571026
     96 O16        -2.6600   -4.6440    4.2690 o         1 MOL     -0.579449
     97 C32        -5.4870   -3.3870    4.2620 c3        1 MOL      0.201819
     98 C33        -5.2960   -1.8720    3.9460 c3        1 MOL     -0.288277
     99 C34        -6.9870   -3.6460    4.3580 c3        1 MOL     -0.288277
    100 H41        -4.9610   -3.0850    1.4310 hn        1 MOL      0.260553
    101 H42        -5.1150   -5.2450    3.4670 h1        1 MOL      0.078933
    102 H43        -4.9960   -3.6710    5.1860 hc        1 MOL     -0.022073
    103 H44        -5.8290   -1.6030    3.0330 hc        1 MOL      0.067891
    104 H45        -5.6150   -1.1710    4.7180 hc        1 MOL      0.067891
    105 H46        -4.2500   -1.5570    3.8460 hc        1 MOL      0.067891
    106 H47        -7.4150   -3.1510    5.2380 hc        1 MOL      0.067891
    107 H48        -7.5590   -3.3960    3.4710 hc        1 MOL      0.067891
    108 H49        -6.9940   -4.6960    4.6610 hc        1 MOL      0.067891
    109 N10        -2.5970   -3.4290    2.4310 n         1 MOL     -0.479101
    110 C35        -1.1570   -3.0270    2.3980 c3        1 MOL      0.253458
    111 C36        -0.4280   -3.5380    1.1470 c         1 MOL      0.564445
    112 O17        -1.0680   -4.0730    0.2840 o         1 MOL     -0.532903
    113 C37        -1.0200   -1.4430    2.5050 c3        1 MOL     -0.196219
    114 C38         0.2090   -1.0880    3.2430 c         1 MOL      0.533631
    115 N11         0.1800   -1.3080    4.5320 n         1 MOL     -0.727305
    116 O18         1.2960   -0.9340    2.7270 o         1 MOL     -0.508052
    117 H50        -3.1420   -3.0020    1.6830 hn        1 MOL      0.261663
    118 H51        -0.7530   -3.4600    3.3120 h1        1 MOL      0.033542
    119 H52        -1.9240   -1.0520    2.9580 hc        1 MOL      0.074604
    120 H53        -0.9940   -0.9400    1.5400 hc        1 MOL      0.074604
    121 H54        -0.7130   -1.5200    4.9540 hn        1 MOL      0.348518
    122 H55         1.0060   -1.1930    5.0860 hn        1 MOL      0.348518
    123 N12         0.8620   -3.2780    0.8890 n         1 MOL     -0.560534
    124 C39         1.7240   -3.8560   -0.1650 c3        1 MOL      0.092815
    125 C40         3.1560   -3.9380    0.4020 c         1 MOL      0.422463
    126 O19         3.4970   -3.2100    1.3900 o         1 MOL     -0.535127
    127 C41         1.6890   -2.8700   -1.3640 c3        1 MOL     -0.199397
    128 C42         2.6740   -3.0150   -2.4850 ca        1 MOL     -0.037251
    129 C43         3.6270   -1.9970   -2.5700 ca        1 MOL     -0.014455
    130 C44         2.6760   -4.0880   -3.3510 ca        1 MOL     -0.014455
    131 C45         4.5910   -2.0310   -3.6560 ca        1 MOL     -0.437269
    132 C46         3.6500   -4.1330   -4.3900 ca        1 MOL     -0.437269
    133 C47         4.6350   -3.1390   -4.4840 ca        1 MOL      0.514340
    134 O20         5.6140   -3.2080   -5.4450 oh        1 MOL     -0.543028
    135 H56         1.3640   -2.6550    1.4980 hn        1 MOL      0.291922
    136 H57         1.2010   -4.7510   -0.4910 h1        1 MOL      0.094489
    137 H58         1.8990   -1.8980   -0.9420 hc        1 MOL      0.119497
    138 H59         0.6810   -2.7840   -1.7720 hc        1 MOL      0.119497
    139 H60         3.7140   -1.0960   -1.9790 ha        1 MOL      0.116198
    140 H61         2.0360   -4.9270   -3.1170 ha        1 MOL      0.116198
    141 H62         5.4460   -1.3810   -3.7210 ha        1 MOL      0.180104
    142 H63         3.7000   -4.9540   -5.0980 ha        1 MOL      0.180104
    143 H64         6.0100   -2.3410   -5.4890 ho        1 MOL      0.356516
    144 N13         4.0310   -4.7380   -0.2150 n         1 MOL     -0.162054
    145 C48         5.4320   -4.9180    0.2400 c3        1 MOL     -0.030391
    146 C49         6.3250   -4.2250   -0.8180 c         1 MOL      0.460107
    147 O21         6.6590   -4.8720   -1.8000 o         1 MOL     -0.529664
    148 C50         5.7860   -6.3910    0.5560 c3        1 MOL      0.075802
    149 C51         4.7370   -6.9550    1.5560 c3        1 MOL     -0.112577
    150 C52         5.0650   -8.3090    2.1030 c         1 MOL      0.680860
    151 O22         4.4340   -9.2990    1.6630 o         1 MOL     -0.688104
    152 O23         6.0220   -8.5110    2.8730 o         1 MOL     -0.688104
    153 H65         3.7080   -5.5120   -0.7800 hn        1 MOL      0.212175
    154 H66         5.5540   -4.4160    1.1950 h1        1 MOL      0.175925
    155 H67         6.7930   -6.4540    0.9530 hc        1 MOL      0.008619
    156 H68         5.6850   -7.0110   -0.3340 hc        1 MOL      0.008619
    157 H69         3.7190   -6.8200    1.1720 hc        1 MOL     -0.024295
    158 H70         4.7360   -6.1970    2.3470 hc        1 MOL     -0.024295
    159 N14         6.9850   -3.0430   -0.6230 n         1 MOL     -0.480479
    160 C53         6.6110   -2.0870    0.3930 c3        1 MOL     -0.018435
    161 C54         6.9500   -2.6690    1.8140 c         1 MOL      0.368801
    162 O24         7.8770   -3.4710    1.9820 o         1 MOL     -0.472414
    163 C55         7.3370   -0.7730    0.1230 c3        1 MOL      0.108255
    164 C56         7.0580   -0.2260   -1.2740 c3        1 MOL     -0.203849
    165 C57         7.6370    1.1070   -1.6850 c         1 MOL      0.689961
    166 O25         6.8670    2.0470   -2.0330 o         1 MOL     -0.696459
    167 O26         8.8580    1.2660   -1.7090 o         1 MOL     -0.696459
    168 H71         7.7910   -2.7830   -1.1790 hn        1 MOL      0.332983
    169 H72         5.5640   -1.8240    0.3050 h1        1 MOL      0.083162
    170 H73         8.3670   -0.8880    0.4380 hc        1 MOL     -0.013014
    171 H74         6.9450   -0.0510    0.8430 hc        1 MOL     -0.013014
    172 H75         5.9720   -0.2000   -1.3810 hc        1 MOL      0.035673
    173 H76         7.3140   -0.9580   -2.0450 hc        1 MOL      0.035673
    174 N15         6.3230   -2.1670    2.9010 n         1 MOL     -0.282536
    175 C58         6.4430   -2.6550    4.2870 c3        1 MOL     -0.175642
    176 H77         7.4440   -2.4430    4.6610 h1        1 MOL      0.090790
    177 H78         5.7080   -2.1510    4.9150 h1        1 MOL      0.090790
    178 H79         6.2660   -3.7300    4.3110 h1        1 MOL      0.090790
    179 H80         5.7620   -1.3320    2.7820 hn        1 MOL      0.256142
    180 Ca1         6.6850    4.4930   -1.0120 Ca        1 MOL      1.691770
    181 O27         6.4560    2.9650    1.1900 oh        1 MOL     -0.825054
    182 H81         7.2310    2.6710    1.6580 ho        1 MOL      0.391744
    183 H82         5.8280    2.2510    1.2870 ho        1 MOL      0.391744
    184 O28         5.6790    4.8300   -3.4560 oh        1 MOL     -0.825054
    185 H83         6.1470    4.4140   -4.1780 ho        1 MOL      0.391744
    186 H84         4.7670    4.8460   -3.7380 ho        1 MOL      0.391744
    187 O29         7.7640    6.9200   -1.3970 oh        1 MOL     -0.825054
    188 H85         7.1100    7.5310   -1.7350 ho        1 MOL      0.391744
    189 H86         8.5480    7.4440   -1.2650 ho        1 MOL      0.391744
    190 O30         8.9530    4.5690    0.4440 oh        1 MOL     -0.825054
    191 H87         9.4050    5.3960    0.2780 ho        1 MOL      0.391744
    192 H88         9.0670    4.4160    1.3860 ho        1 MOL      0.391744
    193 O31         8.7090    4.2630   -2.8810 oh        1 MOL     -0.825054
    194 H89         9.0930    3.3940   -2.8130 ho        1 MOL      0.391744
    195 H90         8.7640    4.4780   -3.8170 ho        1 MOL      0.391744
@<TRIPOS>BOND
     1    1    2 1   
     2    1    4 1   
     3    1    5 1   
     4    1    6 1   
     5    2    3 2   
     6    2    7 1   
     7    7    8 1   
     8    7   15 1   
     9    8    9 1   
    10    8   11 1   
    11    8   16 1   
    12    9   10 2   
    13    9   19 1   
    14   11   12 1   
    15   11   17 1   
    16   11   18 1   
    17   12   13 1   
    18   12   14 1   
    19   19   20 1   
    20   19   27 1   
    21   20   21 1   
    22   20   23 1   
    23   20   28 1   
    24   21   22 2   
    25   21   38 1   
    26   23   24 1   
    27   23   25 1   
    28   23   29 1   
    29   24   26 1   
    30   24   30 1   
    31   24   31 1   
    32   25   32 1   
    33   25   33 1   
    34   25   34 1   
    35   26   35 1   
    36   26   36 1   
    37   26   37 1   
    38   38   39 1   
    39   38   46 1   
    40   39   40 1   
    41   39   42 1   
    42   39   47 1   
    43   40   41 2   
    44   40   50 1   
    45   42   43 1   
    46   42   48 1   
    47   42   49 1   
    48   43   44 1   
    49   43   45 1   
    50   50   51 1   
    51   50   54 1   
    52   51   52 1   
    53   51   55 1   
    54   51   56 1   
    55   52   53 2   
    56   52   57 1   
    57   57   58 1   
    58   57   65 1   
    59   58   59 1   
    60   58   61 1   
    61   58   66 1   
    62   59   60 2   
    63   59   69 1   
    64   61   62 1   
    65   61   67 1   
    66   61   68 1   
    67   62   63 1   
    68   62   64 1   
    69   69   70 1   
    70   69   73 1   
    71   70   71 1   
    72   70   74 1   
    73   70   75 1   
    74   71   72 2   
    75   71   76 1   
    76   76   77 1   
    77   76   85 1   
    78   77   78 1   
    79   77   80 1   
    80   77   86 1   
    81   78   79 2   
    82   78   93 1   
    83   80   81 1   
    84   80   87 1   
    85   80   88 1   
    86   81   82 1   
    87   81   89 1   
    88   81   90 1   
    89   82   83 1   
    90   82   84 2   
    91   83   91 1   
    92   83   92 1   
    93   93   94 1   
    94   93  100 1   
    95   94   95 1   
    96   94   97 1   
    97   94  101 1   
    98   95   96 2   
    99   95  109 1   
   100   97   98 1   
   101   97   99 1   
   102   97  102 1   
   103   98  103 1   
   104   98  104 1   
   105   98  105 1   
   106   99  106 1   
   107   99  107 1   
   108   99  108 1   
   109  109  110 1   
   110  109  117 1   
   111  110  111 1   
   112  110  113 1   
   113  110  118 1   
   114  111  112 2   
   115  111  123 1   
   116  113  114 1   
   117  113  119 1   
   118  113  120 1   
   119  114  115 1   
   120  114  116 2   
   121  115  121 1   
   122  115  122 1   
   123  123  124 1   
   124  123  135 1   
   125  124  125 1   
   126  124  127 1   
   127  124  136 1   
   128  125  126 2   
   129  125  144 1   
   130  127  128 1   
   131  127  137 1   
   132  127  138 1   
   133  128  129 ar  
   134  128  130 ar  
   135  129  131 ar  
   136  129  139 1   
   137  130  132 ar  
   138  130  140 1   
   139  131  133 ar  
   140  131  141 1   
   141  132  133 ar  
   142  132  142 1   
   143  133  134 1   
   144  134  143 1   
   145  144  145 1   
   146  144  153 1   
   147  145  146 1   
   148  145  148 1   
   149  145  154 1   
   150  146  147 2   
   151  146  159 1   
   152  148  149 1   
   153  148  155 1   
   154  148  156 1   
   155  149  150 1   
   156  149  157 1   
   157  149  158 1   
   158  150  151 1   
   159  150  152 1   
   160  159  160 1   
   161  159  168 1   
   162  160  161 1   
   163  160  163 1   
   164  160  169 1   
   165  161  162 2   
   166  161  174 1   
   167  163  164 1   
   168  163  170 1   
   169  163  171 1   
   170  164  165 1   
   171  164  172 1   
   172  164  173 1   
   173  165  166 1   
   174  165  167 1   
   175  174  175 1   
   176  174  179 1   
   177  175  176 1   
   178  175  177 1   
   179  175  178 1   
   180  181  182 1   
   181  181  183 1   
   182  184  185 1   
   183  184  186 1   
   184  187  188 1   
   185  187  189 1   
   186  190  191 1   
   187  190  192 1   
   188  193  194 1   
   189  193  195 1   
@<TRIPOS>SUBSTRUCTURE
     1 MOL         1 TEMP              0 ****  ****    0 ROOT
