@<TRIPOS>MOLECULE
MOL
  192   187     1     0     0
SMALL
resp


@<TRIPOS>ATOM
      1 C1         -4.9990   -4.4020   -3.5540 c3        1 MOL     -0.440978
      2 C2         -5.5630   -3.3720   -2.4820 c         1 MOL      0.895107
      3 O1         -4.8880   -3.0010   -1.5470 o         1 MOL     -0.712497
      4 H1         -3.9690   -4.1430   -3.8000 hc        1 MOL      0.113043
      5 H2         -5.0310   -5.4110   -3.1420 hc        1 MOL      0.113043
      6 H3         -5.6090   -4.3570   -4.4560 hc        1 MOL      0.113043
      7 N1         -6.8160   -2.8830   -2.5470 n         1 MOL     -0.825521
      8 C3         -7.3350   -1.8180   -1.7010 c3        1 MOL      0.428708
      9 C4         -6.3410   -0.5980   -1.5640 c         1 MOL      0.197529
     10 O2         -5.6930   -0.4020   -0.5080 o         1 MOL     -0.424633
     11 C5         -7.9560   -2.2160   -0.3760 c3        1 MOL     -0.056936
     12 C6         -7.6140   -3.5790    0.1550 c         1 MOL      0.691523
     13 O3         -6.6020   -3.7590    0.8390 o         1 MOL     -0.733340
     14 O4         -8.3850   -4.5750   -0.0490 o         1 MOL     -0.733340
     15 H4         -7.3970   -3.3630   -3.2300 hn        1 MOL      0.351035
     16 H5         -8.1880   -1.4370   -2.2660 h1        1 MOL      0.020872
     17 H6         -9.0310   -2.2510   -0.5510 hc        1 MOL     -0.005234
     18 H7         -7.6420   -1.5480    0.4340 hc        1 MOL     -0.005234
     19 N2         -6.1260    0.2110   -2.6590 n         1 MOL     -0.423037
     20 C7         -5.2360    1.3580   -2.7790 c3        1 MOL      0.108386
     21 C8         -5.6270    2.5430   -1.9000 c         1 MOL      0.420079
     22 O5         -5.6900    3.6110   -2.5230 o         1 MOL     -0.575750
     23 C9         -3.6540    1.0730   -2.8610 c3        1 MOL      0.426747
     24 C10        -2.7530    2.2490   -3.4310 c3        1 MOL      0.078430
     25 C11        -3.3490   -0.1840   -3.6560 c3        1 MOL     -0.393771
     26 C12        -3.0410    2.6950   -4.9010 c3        1 MOL     -0.404842
     27 H8         -6.3580   -0.1780   -3.5600 hn        1 MOL      0.267780
     28 H9         -5.5390    1.6350   -3.7880 h1        1 MOL      0.018344
     29 H10        -3.3040    1.0180   -1.8290 hc        1 MOL     -0.193850
     30 H11        -1.7170    1.9110   -3.4930 hc        1 MOL      0.043654
     31 H12        -2.7380    3.1240   -2.7770 hc        1 MOL      0.043654
     32 H13        -2.2610   -0.2260   -3.5500 hc        1 MOL      0.075730
     33 H14        -3.6680   -1.1390   -3.2380 hc        1 MOL      0.075730
     34 H15        -3.5810   -0.1240   -4.7240 hc        1 MOL      0.075730
     35 H16        -2.8120    1.9110   -5.6120 hc        1 MOL      0.073170
     36 H17        -3.9830    3.2270   -5.0210 hc        1 MOL      0.073170
     37 H18        -2.3510    3.5230   -5.0710 hc        1 MOL      0.073170
     38 N3         -6.0240    2.4570   -0.6280 n         1 MOL     -0.148248
     39 C13        -6.7210    3.4580    0.1400 c3        1 MOL      0.129785
     40 C14        -5.9930    4.7570    0.2560 c         1 MOL      0.477042
     41 O6         -6.7340    5.7430    0.1070 o         1 MOL     -0.586207
     42 C15        -7.1040    2.9380    1.4790 c3        1 MOL     -0.158747
     43 C16        -7.8960    1.6160    1.5480 c         1 MOL      0.627266
     44 O7         -8.2600    0.9600    0.4970 o         1 MOL     -0.674692
     45 O8         -8.0580    1.1500    2.7200 o         1 MOL     -0.674692
     46 H19        -5.9380    1.5290   -0.2460 hn        1 MOL      0.117000
     47 H20        -7.6780    3.6150   -0.3640 h1        1 MOL      0.032307
     48 H21        -7.6990    3.7080    1.9780 hc        1 MOL      0.042827
     49 H22        -6.2780    2.8130    2.1870 hc        1 MOL      0.042827
     50 N4         -4.6960    4.8350    0.5840 n         1 MOL     -0.473008
     51 C17        -3.7430    3.7370    0.8200 c3        1 MOL      0.042002
     52 C18        -2.5140    4.1830    1.6340 c         1 MOL      0.612621
     53 O9         -2.0260    5.2410    1.3090 o         1 MOL     -0.596021
     54 H23        -4.3760    5.7310    0.9170 hn        1 MOL      0.270156
     55 H24        -3.3880    3.5290   -0.1920 h1        1 MOL      0.093284
     56 H25        -4.3700    3.0320    1.3650 h1        1 MOL      0.093284
     57 N5         -1.8310    3.2920    2.3760 n         1 MOL     -0.633013
     58 C19        -2.1760    1.9480    2.8060 c3        1 MOL      0.449454
     59 C20        -2.4450    0.9020    1.6520 c         1 MOL      0.002426
     60 O10        -3.6270    0.4790    1.6250 o         1 MOL     -0.345394
     61 C21        -3.3090    2.0070    3.9330 c3        1 MOL     -0.530816
     62 C22        -3.5760    0.6370    4.5610 c         1 MOL      0.733485
     63 O11        -4.7720    0.3480    4.8580 o         1 MOL     -0.664946
     64 O12        -2.6940   -0.2200    4.6870 o         1 MOL     -0.664946
     65 H26        -0.9640    3.6730    2.7320 hn        1 MOL      0.300325
     66 H27        -1.3040    1.5240    3.3000 h1        1 MOL     -0.012481
     67 H28        -4.2040    2.4580    3.5120 hc        1 MOL      0.126435
     68 H29        -2.9600    2.6610    4.7210 hc        1 MOL      0.126435
     69 N6         -1.4740    0.4390    0.9040 n         1 MOL      0.069132
     70 C23         0.0130    0.8830    0.8700 c3        1 MOL     -0.232396
     71 C24         0.1640    2.1340    0.0660 c         1 MOL      0.709489
     72 O13        -0.5620    2.3340   -0.9280 o         1 MOL     -0.628755
     73 H30        -1.6160   -0.4560    0.4670 hn        1 MOL      0.107349
     74 H31         0.6100    0.0600    0.4770 h1        1 MOL      0.084021
     75 H32         0.4150    0.9990    1.8800 h1        1 MOL      0.084021
     76 N7          1.2260    2.8340    0.2820 n         1 MOL     -0.435928
     77 C25         1.6600    4.0350   -0.4640 c3        1 MOL     -0.037192
     78 C26         2.4900    3.7610   -1.7200 c         1 MOL      0.300776
     79 O14         2.8590    4.6750   -2.4570 o         1 MOL     -0.486146
     80 C27         2.3440    4.9490    0.5130 c3        1 MOL      0.220874
     81 C28         1.4420    5.7430    1.5020 c3        1 MOL     -0.361916
     82 C29         2.2840    6.5230    2.5140 c         1 MOL      0.707993
     83 N8          1.8050    7.4240    3.2900 n         1 MOL     -0.797630
     84 O15         3.4670    6.2300    2.7640 o         1 MOL     -0.572495
     85 H33         1.6820    2.6840    1.1690 hn        1 MOL      0.264568
     86 H34         0.7510    4.5420   -0.7850 h1        1 MOL      0.155462
     87 H35         2.9450    5.6510   -0.0590 hc        1 MOL     -0.004990
     88 H36         3.1200    4.4230    1.0780 hc        1 MOL     -0.004990
     89 H37         0.7320    5.0680    1.9850 hc        1 MOL      0.096246
     90 H38         0.9260    6.4180    0.8260 hc        1 MOL      0.096246
     91 H39         0.8110    7.5920    3.3120 hn        1 MOL      0.361039
     92 H40         2.3880    7.6910    4.0660 hn        1 MOL      0.361039
     93 N9          2.6270    2.4520   -2.1730 n         1 MOL      0.034154
     94 C30         3.1810    2.0720   -3.5210 c3        1 MOL     -0.186818
     95 C31         4.6990    1.7570   -3.4380 c         1 MOL      0.482716
     96 O16         5.3860    1.6010   -4.4940 o         1 MOL     -0.524991
     97 C32         2.3910    0.9490   -4.2150 c3        1 MOL      0.175597
     98 C33         1.0410    1.5330   -4.5750 c3        1 MOL     -0.155202
     99 C34         2.0220   -0.1830   -3.2970 c3        1 MOL     -0.155202
    100 H41         2.2590    1.7040   -1.6040 hn        1 MOL      0.032110
    101 H42         3.0800    2.9670   -4.1260 h1        1 MOL      0.129745
    102 H43         2.9790    0.6010   -5.0610 hc        1 MOL      0.008850
    103 H44         0.4240    0.7570   -5.0250 hc        1 MOL      0.036119
    104 H45         0.5830    1.9250   -3.6650 hc        1 MOL      0.036119
    105 H46         1.2250    2.2730   -5.3430 hc        1 MOL      0.036119
    106 H47         1.3220   -0.8630   -3.7800 hc        1 MOL      0.036119
    107 H48         2.9210   -0.6920   -2.9420 hc        1 MOL      0.036119
    108 H49         1.4770    0.2340   -2.4570 hc        1 MOL      0.036119
    109 N10         5.2780    1.7950   -2.1990 n         1 MOL     -0.381560
    110 C35         6.6440    1.5530   -1.8910 c3        1 MOL      0.019795
    111 C36         6.9610    0.0900   -1.4350 c         1 MOL      0.678739
    112 O17         7.9660   -0.4690   -1.8280 o         1 MOL     -0.580422
    113 C37         7.1490    2.5930   -0.8660 c3        1 MOL     -0.333274
    114 C38         6.8340    3.9760   -1.2640 c         1 MOL      0.774031
    115 N11         7.2810    4.4810   -2.3650 n         1 MOL     -0.859204
    116 O18         6.2300    4.6790   -0.4630 o         1 MOL     -0.587536
    117 H50         4.6530    1.8940   -1.4150 hn        1 MOL      0.227134
    118 H51         7.2830    1.6100   -2.7750 h1        1 MOL      0.041023
    119 H52         8.2350    2.6240   -0.8980 hc        1 MOL      0.128745
    120 H53         6.8460    2.4330    0.1700 hc        1 MOL      0.128745
    121 H54         7.7700    3.8930   -3.0180 hn        1 MOL      0.384649
    122 H55         6.9210    5.3450   -2.7490 hn        1 MOL      0.384649
    123 N12         6.1430   -0.4930   -0.5470 n         1 MOL     -0.518801
    124 C39         6.3980   -1.7900    0.1130 c3        1 MOL      0.155998
    125 C40         5.1180   -2.5990    0.3080 c         1 MOL      0.437416
    126 O19         4.0310   -2.0960    0.0270 o         1 MOL     -0.483299
    127 C41         6.8850   -1.4670    1.5740 c3        1 MOL     -0.141996
    128 C42         8.2390   -0.6350    1.5130 ca        1 MOL     -0.145144
    129 C43         9.4150   -1.2640    1.0860 ca        1 MOL     -0.015859
    130 C44         8.3340    0.7510    1.7480 ca        1 MOL     -0.015859
    131 C45        10.6530   -0.6420    1.0820 ca        1 MOL     -0.328520
    132 C46         9.5680    1.4340    1.5630 ca        1 MOL     -0.328520
    133 C47        10.7270    0.7100    1.2590 ca        1 MOL      0.398079
    134 O20        11.8860    1.3450    1.2170 oh        1 MOL     -0.488497
    135 H56         5.2750    0.0120   -0.4120 hn        1 MOL      0.256938
    136 H57         7.1740   -2.3150   -0.4350 h1        1 MOL      0.058292
    137 H58         7.1770   -2.4760    1.8720 hc        1 MOL      0.132357
    138 H59         6.1930   -0.9460    2.2310 hc        1 MOL      0.132357
    139 H60         9.4520   -2.3210    0.8720 ha        1 MOL      0.102389
    140 H61         7.5180    1.2730    2.2230 ha        1 MOL      0.102389
    141 H62        11.5250   -1.2420    0.8410 ha        1 MOL      0.140959
    142 H63         9.6510    2.5060    1.7190 ha        1 MOL      0.140959
    143 H64        12.5840    0.7050    1.0270 ho        1 MOL      0.348833
    144 N13         5.1820   -3.8090    0.8220 n         1 MOL     -0.539387
    145 C48         4.0820   -4.5400    1.4910 c3        1 MOL      0.188797
    146 C49         2.9180   -4.9700    0.6590 c         1 MOL      0.238684
    147 O21         2.3840   -6.0620    0.8700 o         1 MOL     -0.510445
    148 C50         3.7740   -4.0070    2.8410 c3        1 MOL      0.118780
    149 C51         5.0190   -4.1190    3.7350 c3        1 MOL     -0.231948
    150 C52         4.7160   -3.6880    5.1610 c         1 MOL      0.748227
    151 O22         4.0990   -2.6490    5.3840 o         1 MOL     -0.734302
    152 O23         5.1640   -4.3310    6.1320 o         1 MOL     -0.734302
    153 H65         6.1190   -4.1680    0.9750 hn        1 MOL      0.314287
    154 H66         4.4760   -5.5410    1.6640 h1        1 MOL      0.053752
    155 H67         3.0310   -4.6410    3.3360 hc        1 MOL      0.018122
    156 H68         3.3720   -2.9940    2.8400 hc        1 MOL      0.018122
    157 H69         5.7480   -3.4260    3.2970 hc        1 MOL     -0.029527
    158 H70         5.4350   -5.1320    3.6880 hc        1 MOL     -0.029527
    159 N14         2.5490   -4.2290   -0.3860 n         1 MOL     -0.081222
    160 C53         1.5440   -4.6800   -1.4320 c3        1 MOL     -0.199134
    161 C54         2.1250   -5.6360   -2.5020 c         1 MOL      0.471730
    162 O24         1.3660   -6.1960   -3.3180 o         1 MOL     -0.546718
    163 C55         0.8060   -3.5010   -2.0690 c3        1 MOL     -0.160749
    164 C56         0.0150   -2.4860   -1.1820 c3        1 MOL      0.170412
    165 C57        -1.2300   -3.0380   -0.5360 c         1 MOL      0.557025
    166 O25        -2.1700   -2.1770   -0.2980 o         1 MOL     -0.592588
    167 O26        -1.2460   -4.2240   -0.0680 o         1 MOL     -0.592588
    168 H71         2.9370   -3.3020   -0.4780 hn        1 MOL      0.176570
    169 H72         0.8130   -5.2330   -0.8420 h1        1 MOL      0.159298
    170 H73         0.0450   -3.8980   -2.7500 hc        1 MOL      0.054929
    171 H74         1.6070   -3.0110   -2.6190 hc        1 MOL      0.054929
    172 H75        -0.3020   -1.6260   -1.7740 hc        1 MOL     -0.018216
    173 H76         0.7420   -2.0860   -0.4720 hc        1 MOL     -0.018216
    174 N15         3.4160   -5.7740   -2.6300 n         1 MOL     -0.136655
    175 C58         4.0690   -6.5750   -3.6510 c3        1 MOL     -0.265123
    176 H77         5.0690   -6.1830   -3.8360 h1        1 MOL      0.102036
    177 H78         4.1430   -7.6080   -3.3100 h1        1 MOL      0.102036
    178 H79         3.4880   -6.5360   -4.5710 h1        1 MOL      0.102036
    179 H80         3.9540   -5.2620   -1.9370 hn        1 MOL      0.157738
    180 Ca1        -4.5870   -2.1820    0.9720 Ca        1 MOL      1.672695
    181 O27        -5.0320   -3.6940    3.2780 oh        1 MOL     -0.768777
    182 H81        -5.3830   -3.1920    4.0090 ho        1 MOL      0.366451
    183 H82        -5.7750   -4.1810    2.9280 ho        1 MOL      0.366451
    184 O28        -3.5900   -4.6500    1.0110 oh        1 MOL     -0.768777
    185 H83        -4.0200   -5.3470    0.5010 ho        1 MOL      0.366451
    186 H84        -2.7040   -4.6290    0.6680 ho        1 MOL      0.366451
    187 O29        -2.5560   -2.0630    2.7700 oh        1 MOL     -0.768777
    188 H85        -1.8300   -2.6790    2.7780 ho        1 MOL      0.366451
    189 H86        -2.3020   -1.3890    3.4010 ho        1 MOL      0.366451
    190 O30        -6.0610   -0.9430    2.6850 oh        1 MOL     -0.768777
    191 H87        -5.6340   -0.5990    3.4680 ho        1 MOL      0.366451
    192 H88        -6.8300   -0.3740    2.5580 ho        1 MOL      0.366451
@<TRIPOS>BOND
     1    1    2 1   
     2    1    4 1   
     3    1    5 1   
     4    1    6 1   
     5    2    3 2   
     6    2    7 1   
     7    7    8 1   
     8    7   15 1   
     9    8    9 1   
    10    8   11 1   
    11    8   16 1   
    12    9   10 2   
    13    9   19 1   
    14   11   12 1   
    15   11   17 1   
    16   11   18 1   
    17   12   13 1   
    18   12   14 1   
    19   19   20 1   
    20   19   27 1   
    21   20   21 1   
    22   20   23 1   
    23   20   28 1   
    24   21   22 2   
    25   21   38 1   
    26   23   24 1   
    27   23   25 1   
    28   23   29 1   
    29   24   26 1   
    30   24   30 1   
    31   24   31 1   
    32   25   32 1   
    33   25   33 1   
    34   25   34 1   
    35   26   35 1   
    36   26   36 1   
    37   26   37 1   
    38   38   39 1   
    39   38   46 1   
    40   39   40 1   
    41   39   42 1   
    42   39   47 1   
    43   40   41 2   
    44   40   50 1   
    45   42   43 1   
    46   42   48 1   
    47   42   49 1   
    48   43   44 1   
    49   43   45 1   
    50   50   51 1   
    51   50   54 1   
    52   51   52 1   
    53   51   55 1   
    54   51   56 1   
    55   52   53 2   
    56   52   57 1   
    57   57   58 1   
    58   57   65 1   
    59   58   59 1   
    60   58   61 1   
    61   58   66 1   
    62   59   60 2   
    63   59   69 1   
    64   61   62 1   
    65   61   67 1   
    66   61   68 1   
    67   62   63 1   
    68   62   64 1   
    69   69   70 1   
    70   69   73 1   
    71   70   71 1   
    72   70   74 1   
    73   70   75 1   
    74   71   72 2   
    75   71   76 1   
    76   76   77 1   
    77   76   85 1   
    78   77   78 1   
    79   77   80 1   
    80   77   86 1   
    81   78   79 2   
    82   78   93 1   
    83   80   81 1   
    84   80   87 1   
    85   80   88 1   
    86   81   82 1   
    87   81   89 1   
    88   81   90 1   
    89   82   83 1   
    90   82   84 2   
    91   83   91 1   
    92   83   92 1   
    93   93   94 1   
    94   93  100 1   
    95   94   95 1   
    96   94   97 1   
    97   94  101 1   
    98   95   96 2   
    99   95  109 1   
   100   97   98 1   
   101   97   99 1   
   102   97  102 1   
   103   98  103 1   
   104   98  104 1   
   105   98  105 1   
   106   99  106 1   
   107   99  107 1   
   108   99  108 1   
   109  109  110 1   
   110  109  117 1   
   111  110  111 1   
   112  110  113 1   
   113  110  118 1   
   114  111  112 2   
   115  111  123 1   
   116  113  114 1   
   117  113  119 1   
   118  113  120 1   
   119  114  115 1   
   120  114  116 2   
   121  115  121 1   
   122  115  122 1   
   123  123  124 1   
   124  123  135 1   
   125  124  125 1   
   126  124  127 1   
   127  124  136 1   
   128  125  126 2   
   129  125  144 1   
   130  127  128 1   
   131  127  137 1   
   132  127  138 1   
   133  128  129 ar  
   134  128  130 ar  
   135  129  131 ar  
   136  129  139 1   
   137  130  132 ar  
   138  130  140 1   
   139  131  133 ar  
   140  131  141 1   
   141  132  133 ar  
   142  132  142 1   
   143  133  134 1   
   144  134  143 1   
   145  144  145 1   
   146  144  153 1   
   147  145  146 1   
   148  145  148 1   
   149  145  154 1   
   150  146  147 2   
   151  146  159 1   
   152  148  149 1   
   153  148  155 1   
   154  148  156 1   
   155  149  150 1   
   156  149  157 1   
   157  149  158 1   
   158  150  151 1   
   159  150  152 1   
   160  159  160 1   
   161  159  168 1   
   162  160  161 1   
   163  160  163 1   
   164  160  169 1   
   165  161  162 2   
   166  161  174 1   
   167  163  164 1   
   168  163  170 1   
   169  163  171 1   
   170  164  165 1   
   171  164  172 1   
   172  164  173 1   
   173  165  166 1   
   174  165  167 1   
   175  174  175 1   
   176  174  179 1   
   177  175  176 1   
   178  175  177 1   
   179  175  178 1   
   180  181  182 1   
   181  181  183 1   
   182  184  185 1   
   183  184  186 1   
   184  187  188 1   
   185  187  189 1   
   186  190  191 1   
   187  190  192 1   
@<TRIPOS>SUBSTRUCTURE
     1 MOL         1 TEMP              0 ****  ****    0 ROOT
