@<TRIPOS>MOLECULE
MOL
  175   173     1     0     0
SMALL
resp


@<TRIPOS>ATOM
      1 C1         -7.1730    7.9850    2.0470 c3        1 MOL     -0.402542
      2 C2         -7.8910    7.1600    0.8940 c         1 MOL      0.645434
      3 O1         -7.9110    7.6220   -0.2510 o         1 MOL     -0.561714
      4 H1         -7.2630    7.4450    2.9890 hc        1 MOL      0.095667
      5 H2         -6.1190    8.1130    1.8010 hc        1 MOL      0.095667
      6 H3         -7.6460    8.9630    2.1430 hc        1 MOL      0.095667
      7 N1         -8.4180    5.9570    1.1870 n         1 MOL     -0.489913
      8 C3         -9.0050    5.0550    0.1950 c3        1 MOL      0.104034
      9 C4         -7.9510    4.3640   -0.6990 c         1 MOL      0.606927
     10 O2         -8.1140    4.2190   -1.9480 o         1 MOL     -0.520626
     11 C5         -9.9100    4.1320    1.0290 c3        1 MOL     -0.260991
     12 C6        -10.7430    3.2960    0.1100 c         1 MOL      0.705300
     13 O3        -11.6410    3.8350   -0.6300 o         1 MOL     -0.723197
     14 O4        -10.4790    2.0680   -0.0230 o         1 MOL     -0.723197
     15 H4         -8.3620    5.6310    2.1450 hn        1 MOL      0.290131
     16 H5         -9.6050    5.6140   -0.5160 h1        1 MOL      0.081861
     17 H6        -10.6570    4.6840    1.6250 hc        1 MOL      0.024764
     18 H7         -9.2760    3.5760    1.7340 hc        1 MOL      0.024764
     19 N2         -6.7490    4.1410   -0.0310 n         1 MOL     -0.612917
     20 C7         -5.5930    3.5300   -0.6460 c3        1 MOL      0.376541
     21 C8         -4.8150    2.6460    0.3910 c         1 MOL      0.443492
     22 O5         -4.3720    3.1220    1.4700 o         1 MOL     -0.535810
     23 C9         -4.8030    4.6630   -1.3820 c3        1 MOL     -0.308224
     24 H8         -6.6240    4.4410    0.9210 hn        1 MOL      0.284597
     25 H9         -6.0140    2.8980   -1.4250 h1        1 MOL      0.028678
     26 H10        -5.4560    5.2860   -1.9980 hc        1 MOL      0.082724
     27 H11        -4.1470    5.2410   -0.7350 hc        1 MOL      0.082724
     28 H12        -4.1850    4.2340   -2.1760 hc        1 MOL      0.082724
     29 N3         -4.6120    1.3270    0.1290 n         1 MOL     -0.272252
     30 C10        -5.1800    0.4760   -0.8580 c3        1 MOL     -0.323204
     31 C11        -5.5650   -0.9760   -0.4670 c         1 MOL      0.719306
     32 O6         -5.1580   -1.6120    0.5110 o         1 MOL     -0.549321
     33 C12        -4.3280    0.5260   -2.1230 c3        1 MOL     -0.067145
     34 C13        -2.8900    0.0290   -2.0270 c         1 MOL      0.665249
     35 O7         -2.0550    0.7730   -1.4740 o         1 MOL     -0.727535
     36 O8         -2.5490   -1.1400   -2.2610 o         1 MOL     -0.727535
     37 H13        -3.9520    0.8690    0.7370 hn        1 MOL      0.242722
     38 H14        -6.1570    0.9310   -1.0360 h1        1 MOL      0.136026
     39 H15        -4.3670    1.5390   -2.5260 hc        1 MOL      0.020453
     40 H16        -4.7490   -0.1070   -2.9020 hc        1 MOL      0.020453
     41 N4         -6.5080   -1.5840   -1.2510 n         1 MOL     -0.490981
     42 C14        -7.0640   -2.9380   -0.9700 c3        1 MOL      0.087038
     43 C15        -6.8600   -4.1170   -2.0000 c         1 MOL      0.478331
     44 O9         -7.7820   -4.4660   -2.7280 o         1 MOL     -0.553317
     45 H17        -6.6620   -1.2320   -2.1840 hn        1 MOL      0.322935
     46 H18        -8.1160   -2.8800   -0.6590 h1        1 MOL      0.046838
     47 H19        -6.5350   -3.3600   -0.1170 h1        1 MOL      0.046838
     48 N5         -5.6740   -4.6890   -2.1970 n         1 MOL     -0.441061
     49 C16        -4.3990   -4.3390   -1.5730 c3        1 MOL      0.169961
     50 C17        -4.1710   -5.0470   -0.2210 c         1 MOL      0.414858
     51 O10        -3.9950   -6.2570   -0.2480 o         1 MOL     -0.536106
     52 C18        -3.2870   -4.5680   -2.6220 c3        1 MOL     -0.047546
     53 C19        -1.9060   -4.2440   -2.0080 c         1 MOL      0.581395
     54 N6         -0.8200   -4.6150   -2.6560 n         1 MOL     -0.627504
     55 O11        -1.6780   -3.5330   -1.0190 o         1 MOL     -0.584956
     56 H20        -5.6040   -5.3340   -2.9730 hn        1 MOL      0.292953
     57 H21        -4.3020   -3.2510   -1.4690 h1        1 MOL      0.015843
     58 H22        -3.4090   -3.8880   -3.4630 hc        1 MOL      0.017159
     59 H23        -3.2500   -5.6000   -2.9670 hc        1 MOL      0.017159
     60 H24        -0.9700   -4.8720   -3.6250 hn        1 MOL      0.291983
     61 H25         0.0200   -4.1380   -2.3480 hn        1 MOL      0.291983
     62 N7         -4.0820   -4.2800    0.8780 n         1 MOL     -0.114708
     63 C20        -3.8750   -4.6880    2.2720 c3        1 MOL     -0.383006
     64 C21        -2.4390   -5.0690    2.7160 c         1 MOL      0.534353
     65 O12        -2.3230   -5.6030    3.7950 o         1 MOL     -0.545228
     66 H26        -4.4070   -3.3270    0.8570 hn        1 MOL      0.194340
     67 H27        -4.4870   -5.5740    2.4570 h1        1 MOL      0.148429
     68 H28        -4.3360   -3.9640    2.9450 h1        1 MOL      0.148429
     69 N8         -1.4080   -4.6900    1.9330 n         1 MOL     -0.217497
     70 C22        -0.0300   -4.9390    2.2910 c3        1 MOL     -0.099375
     71 C23         0.8640   -3.7080    2.1480 c         1 MOL      0.449890
     72 O13         0.5230   -2.7470    1.3230 o         1 MOL     -0.609656
     73 C24         0.4980   -6.1390    1.4390 c3        1 MOL      0.417670
     74 C25        -0.4080   -7.4590    1.5310 c3        1 MOL     -0.618804
     75 O14         0.4300   -5.8410    0.0390 oh        1 MOL     -0.672246
     76 H29        -1.6650   -4.2260    1.0790 hn        1 MOL      0.254265
     77 H30        -0.0010   -5.2680    3.3240 h1        1 MOL      0.062749
     78 H31         1.5420   -6.3510    1.6590 h1        1 MOL     -0.020099
     79 H32         1.2190   -5.3300   -0.1820 ho        1 MOL      0.480790
     80 H33        -0.6940   -7.4860    2.5820 hc        1 MOL      0.164292
     81 H34        -1.3080   -7.2990    0.9380 hc        1 MOL      0.164292
     82 H35         0.0650   -8.3580    1.1280 hc        1 MOL      0.164292
     83 N9          2.0640   -3.5720    2.7970 n         1 MOL     -0.325159
     84 C26         3.0210   -2.5060    2.4950 c3        1 MOL      0.453714
     85 C27         3.9650   -2.9720    1.3360 c         1 MOL      0.164002
     86 O15         4.5470   -4.0350    1.5160 o         1 MOL     -0.514444
     87 C28         3.7810   -2.0610    3.7820 c3        1 MOL      0.078726
     88 C29         5.1290   -1.2820    3.6660 c3        1 MOL     -0.258853
     89 C30         2.8340   -1.4230    4.7190 c3        1 MOL     -0.184015
     90 C31         4.9130    0.0020    2.9860 c3        1 MOL     -0.198055
     91 H36         2.3320   -4.4130    3.2840 hn        1 MOL      0.223888
     92 H37         2.4750   -1.6950    2.0210 h1        1 MOL     -0.091268
     93 H38         4.0130   -3.0420    4.2220 hc        1 MOL     -0.034578
     94 H39         5.8650   -1.8060    3.0580 hc        1 MOL      0.086303
     95 H40         5.5600   -1.0170    4.6330 hc        1 MOL      0.086303
     96 H41         3.2940   -1.1760    5.6750 hc        1 MOL      0.043673
     97 H42         2.3750   -0.5560    4.2370 hc        1 MOL      0.043673
     98 H43         2.0390   -2.1410    4.8660 hc        1 MOL      0.043673
     99 H44         5.8320    0.5920    3.0020 hc        1 MOL      0.053563
    100 H45         4.5800   -0.1280    1.9500 hc        1 MOL      0.053563
    101 H46         4.2730    0.6160    3.6180 hc        1 MOL      0.053563
    102 N10         4.0000   -2.2380    0.2210 n         1 MOL     -0.034047
    103 C32         4.6320   -2.6510   -1.0090 c3        1 MOL      0.035602
    104 C33         5.7450   -1.7210   -1.5350 c         1 MOL      0.582997
    105 O16         6.1510   -1.7950   -2.6890 o         1 MOL     -0.538637
    106 C34         3.5380   -2.8630   -2.0300 c3        1 MOL     -0.316060
    107 C35         2.3010   -3.5220   -1.4580 c         1 MOL      0.882178
    108 O17         2.4390   -4.5990   -0.8410 o         1 MOL     -0.708910
    109 O18         1.1830   -3.0340   -1.7190 o         1 MOL     -0.708910
    110 H47         3.2910   -1.5320    0.1560 hn        1 MOL      0.169748
    111 H48         5.1090   -3.6050   -0.7960 h1        1 MOL      0.083103
    112 H49         3.8570   -3.2930   -2.9730 hc        1 MOL      0.068715
    113 H50         3.2740   -1.8270   -2.2550 hc        1 MOL      0.068715
    114 N11         6.3420   -0.8260   -0.6830 n         1 MOL     -0.713275
    115 C36         7.2570    0.2960   -0.9970 c3        1 MOL      0.495255
    116 C37         6.7870    1.6760   -0.4830 c         1 MOL      0.179676
    117 O19         6.5750    1.8090    0.7350 o         1 MOL     -0.465402
    118 C38         8.7160   -0.0000   -0.6750 c3        1 MOL     -0.244276
    119 C39         9.6960    1.0940   -1.0960 ca        1 MOL      0.125702
    120 C40        10.1910    2.0450   -0.1620 ca        1 MOL     -0.217263
    121 C41         9.9640    1.2790   -2.4560 ca        1 MOL     -0.217263
    122 C42        11.0240    3.1150   -0.5980 ca        1 MOL     -0.071631
    123 C43        10.7880    2.3470   -2.8740 ca        1 MOL     -0.071631
    124 C44        11.3020    3.1940   -1.9570 ca        1 MOL     -0.119258
    125 H51         5.9600   -0.7990    0.2540 hn        1 MOL      0.360362
    126 H52         7.3380    0.3680   -2.0820 h1        1 MOL     -0.017816
    127 H53         8.9890   -0.9190   -1.1840 hc        1 MOL      0.080978
    128 H54         8.7780   -0.1030    0.4050 hc        1 MOL      0.080978
    129 H55        10.0110    1.9250    0.9040 ha        1 MOL      0.146815
    130 H56         9.5620    0.5940   -3.1890 ha        1 MOL      0.146815
    131 H57        11.4690    3.8160    0.0900 ha        1 MOL      0.098590
    132 H58        11.0610    2.4520   -3.9210 ha        1 MOL      0.098590
    133 H59        11.8900    4.0300   -2.3050 ha        1 MOL      0.090767
    134 N12         6.5840    2.7570   -1.3280 n         1 MOL     -0.076461
    135 C45         6.4650    4.1410   -0.8630 c3        1 MOL      0.290416
    136 C46         5.3040    4.5440   -0.0230 c         1 MOL      0.197032
    137 O20         5.3800    5.6300    0.5800 o         1 MOL     -0.527320
    138 C47         6.3580    5.0570   -2.0530 c3        1 MOL     -0.234980
    139 C48         6.6140    4.1370   -3.2130 c3        1 MOL      0.053677
    140 C49         6.5060    2.6690   -2.7970 c3        1 MOL     -0.230552
    141 H60         7.3540    4.4410   -0.3130 h1        1 MOL      0.027352
    142 H61         5.3890    5.5140   -2.2490 hc        1 MOL      0.094897
    143 H62         7.1310    5.8110   -1.9390 hc        1 MOL      0.094897
    144 H63         6.0340    4.2970   -4.1250 hc        1 MOL      0.011434
    145 H64         7.6740    4.2750   -3.4050 hc        1 MOL      0.011434
    146 H65         5.4890    2.4450   -3.1290 h1        1 MOL      0.104711
    147 H66         7.1550    1.9170   -3.2540 h1        1 MOL      0.104711
    148 N13         4.2040    3.8190    0.0260 n         1 MOL      0.028659
    149 C50         3.0210    4.2440    0.7810 c3        1 MOL     -0.444546
    150 C51         3.0970    4.5630    2.2900 c         1 MOL      0.580709
    151 O21         2.1780    5.1730    2.8810 o         1 MOL     -0.539017
    152 C52         1.9080    3.1870    0.7120 c3        1 MOL     -0.104194
    153 C53         2.2780    1.8660    1.2470 c3        1 MOL     -0.391180
    154 C54         1.4730    0.7550    0.6040 c         1 MOL      0.826736
    155 O22         2.0030   -0.0640   -0.1280 o         1 MOL     -0.729480
    156 O23         0.1900    0.7350    0.7310 o         1 MOL     -0.729480
    157 H67         4.1670    3.0710   -0.6470 hn        1 MOL      0.197865
    158 H68         2.5880    5.1150    0.2770 h1        1 MOL      0.182914
    159 H69         1.4880    3.0980   -0.2920 hc        1 MOL      0.116611
    160 H70         1.0070    3.4620    1.2550 hc        1 MOL      0.116611
    161 H71         2.0570    1.9070    2.3050 hc        1 MOL      0.102940
    162 H72         3.3190    1.6350    1.0200 hc        1 MOL      0.102940
    163 N14         4.1970    4.2500    2.9990 n         1 MOL     -0.139793
    164 C55         4.4900    4.6510    4.3530 c3        1 MOL     -0.089022
    165 H73         4.1260    3.8900    5.0440 h1        1 MOL      0.058199
    166 H74         5.5670    4.7650    4.4730 h1        1 MOL      0.058199
    167 H75         3.9980    5.6000    4.5670 h1        1 MOL      0.058199
    168 H76         4.8900    3.7280    2.4820 hn        1 MOL      0.182812
    169 Ca1        -0.3250   -1.3020   -0.7140 Ca        1 MOL      1.738048
    170 O24        -2.2000   -1.2910    1.2190 oh        1 MOL     -0.882916
    171 H77        -2.0830   -0.4500    1.6640 ho        1 MOL      0.420906
    172 H78        -3.1210   -1.5110    1.3520 ho        1 MOL      0.420906
    173 O25         0.7050   -0.0620   -2.9120 oh        1 MOL     -0.882916
    174 H79         0.5140    0.8750   -2.9510 ho        1 MOL      0.420906
    175 H80         0.7720   -0.3290   -3.8270 ho        1 MOL      0.420906
@<TRIPOS>BOND
     1    1    2 1   
     2    1    4 1   
     3    1    5 1   
     4    1    6 1   
     5    2    3 2   
     6    2    7 1   
     7    7    8 1   
     8    7   15 1   
     9    8    9 1   
    10    8   11 1   
    11    8   16 1   
    12    9   10 2   
    13    9   19 1   
    14   11   12 1   
    15   11   17 1   
    16   11   18 1   
    17   12   13 1   
    18   12   14 1   
    19   19   20 1   
    20   19   24 1   
    21   20   21 1   
    22   20   23 1   
    23   20   25 1   
    24   21   22 2   
    25   21   29 1   
    26   23   26 1   
    27   23   27 1   
    28   23   28 1   
    29   29   30 1   
    30   29   37 1   
    31   30   31 1   
    32   30   33 1   
    33   30   38 1   
    34   31   32 2   
    35   31   41 1   
    36   33   34 1   
    37   33   39 1   
    38   33   40 1   
    39   34   35 1   
    40   34   36 1   
    41   41   42 1   
    42   41   45 1   
    43   42   43 1   
    44   42   46 1   
    45   42   47 1   
    46   43   44 2   
    47   43   48 1   
    48   48   49 1   
    49   48   56 1   
    50   49   50 1   
    51   49   52 1   
    52   49   57 1   
    53   50   51 2   
    54   50   62 1   
    55   52   53 1   
    56   52   58 1   
    57   52   59 1   
    58   53   54 1   
    59   53   55 2   
    60   54   60 1   
    61   54   61 1   
    62   62   63 1   
    63   62   66 1   
    64   63   64 1   
    65   63   67 1   
    66   63   68 1   
    67   64   65 2   
    68   64   69 1   
    69   69   70 1   
    70   69   76 1   
    71   70   71 1   
    72   70   73 1   
    73   70   77 1   
    74   71   72 2   
    75   71   83 1   
    76   73   74 1   
    77   73   75 1   
    78   73   78 1   
    79   74   80 1   
    80   74   81 1   
    81   74   82 1   
    82   75   79 1   
    83   83   84 1   
    84   83   91 1   
    85   84   85 1   
    86   84   87 1   
    87   84   92 1   
    88   85   86 2   
    89   85  102 1   
    90   87   88 1   
    91   87   89 1   
    92   87   93 1   
    93   88   90 1   
    94   88   94 1   
    95   88   95 1   
    96   89   96 1   
    97   89   97 1   
    98   89   98 1   
    99   90   99 1   
   100   90  100 1   
   101   90  101 1   
   102  102  103 1   
   103  102  110 1   
   104  103  104 1   
   105  103  106 1   
   106  103  111 1   
   107  104  105 2   
   108  104  114 1   
   109  106  107 1   
   110  106  112 1   
   111  106  113 1   
   112  107  108 1   
   113  107  109 1   
   114  114  115 1   
   115  114  125 1   
   116  115  116 1   
   117  115  118 1   
   118  115  126 1   
   119  116  117 2   
   120  116  134 1   
   121  118  119 1   
   122  118  127 1   
   123  118  128 1   
   124  119  120 ar  
   125  119  121 ar  
   126  120  122 ar  
   127  120  129 1   
   128  121  123 ar  
   129  121  130 1   
   130  122  124 ar  
   131  122  131 1   
   132  123  124 ar  
   133  123  132 1   
   134  124  133 1   
   135  134  135 1   
   136  134  140 1   
   137  135  136 1   
   138  135  138 1   
   139  135  141 1   
   140  136  137 2   
   141  136  148 1   
   142  138  139 1   
   143  138  142 1   
   144  138  143 1   
   145  139  140 1   
   146  139  144 1   
   147  139  145 1   
   148  140  146 1   
   149  140  147 1   
   150  148  149 1   
   151  148  157 1   
   152  149  150 1   
   153  149  152 1   
   154  149  158 1   
   155  150  151 2   
   156  150  163 1   
   157  152  153 1   
   158  152  159 1   
   159  152  160 1   
   160  153  154 1   
   161  153  161 1   
   162  153  162 1   
   163  154  155 1   
   164  154  156 1   
   165  163  164 1   
   166  163  168 1   
   167  164  165 1   
   168  164  166 1   
   169  164  167 1   
   170  170  171 1   
   171  170  172 1   
   172  173  174 1   
   173  173  175 1   
@<TRIPOS>SUBSTRUCTURE
     1 MOL         1 TEMP              0 ****  ****    0 ROOT
