@<TRIPOS>MOLECULE
MOL
  189   185     1     0     0
SMALL
resp


@<TRIPOS>ATOM
      1 C1          0.8800    8.3080   -2.2520 c3        1 MOL     -0.333805
      2 C2          1.3170    6.8370   -2.1610 c         1 MOL      0.597115
      3 O1          1.6460    6.2240   -3.2210 o         1 MOL     -0.573350
      4 H1          0.4130    8.6060   -1.3130 hc        1 MOL      0.089687
      5 H2          1.7510    8.9360   -2.4400 hc        1 MOL      0.089687
      6 H3          0.1640    8.4250   -3.0650 hc        1 MOL      0.089687
      7 N1          1.4560    6.2990   -0.9630 n         1 MOL     -0.339902
      8 C3          1.9120    4.8970   -0.6680 c3        1 MOL     -0.059642
      9 C4          0.7480    3.9480   -0.2040 c         1 MOL      0.594258
     10 O2          0.8530    2.7220   -0.1840 o         1 MOL     -0.515511
     11 C5          2.8430    4.9140    0.5430 c3        1 MOL     -0.065365
     12 C6          2.3180    5.6600    1.8250 c         1 MOL      0.618940
     13 O3          2.5090    5.0690    2.8570 o         1 MOL     -0.667102
     14 O4          1.5960    6.7010    1.8220 o         1 MOL     -0.667102
     15 H4          1.3490    6.8330   -0.1100 hn        1 MOL      0.185924
     16 H5          2.3430    4.3750   -1.5290 h1        1 MOL      0.110304
     17 H6          3.8100    5.3390    0.2670 hc        1 MOL      0.041404
     18 H7          3.0720    3.8660    0.7120 hc        1 MOL      0.041404
     19 N2         -0.4310    4.5190    0.0960 n         1 MOL     -0.591253
     20 C7         -1.6860    3.8300    0.4980 c3        1 MOL      0.144806
     21 C8         -2.3120    3.3230   -0.8110 c         1 MOL      0.502142
     22 O5         -2.0590    3.8990   -1.8710 o         1 MOL     -0.531964
     23 C9         -2.5530    4.7680    1.2440 c3        1 MOL     -0.009602
     24 C10        -1.9620    5.5560    2.3620 c3        1 MOL     -0.128843
     25 C11        -1.3380    4.7230    3.5350 c3        1 MOL     -0.022543
     26 C12        -0.9160    5.7940    4.6090 c3        1 MOL     -0.030100
     27 N3          0.2590    6.6200    4.1210 n4        1 MOL     -0.206307
     28 H8         -0.4440    5.5340    0.1300 hn        1 MOL      0.291915
     29 H9         -1.4240    2.9430    1.0700 h1        1 MOL      0.118964
     30 H10        -3.3750    4.1590    1.6220 hc        1 MOL      0.032001
     31 H11        -3.0260    5.5120    0.6010 hc        1 MOL      0.032001
     32 H12        -2.7510    6.1710    2.7710 hc        1 MOL      0.050559
     33 H13        -1.1920    6.1800    1.9170 hc        1 MOL      0.050559
     34 H14        -0.4700    4.1180    3.2580 hc        1 MOL      0.080173
     35 H15        -2.0590    4.0620    4.0210 hc        1 MOL      0.080173
     36 H16        -0.6450    5.2210    5.4910 hx        1 MOL      0.065973
     37 H17        -1.7120    6.4850    4.8860 hx        1 MOL      0.065973
     38 H18         0.7790    6.9990    4.9100 hn        1 MOL      0.266145
     39 H19         0.9520    6.0660    3.6490 hn        1 MOL      0.266145
     40 H20         0.0430    7.4240    3.5510 hn        1 MOL      0.266145
     41 N4         -3.0360    2.1700   -0.9270 n         1 MOL     -0.527885
     42 C13        -3.0190    1.0810    0.0710 c3        1 MOL      0.107041
     43 C14        -3.2850    1.4320    1.5460 c         1 MOL      0.467598
     44 O6         -2.3950    1.3600    2.3630 o         1 MOL     -0.598860
     45 C15        -1.7930    0.2290   -0.0100 c3        1 MOL     -0.490234
     46 C16        -1.5230   -0.2200   -1.4510 c         1 MOL      0.975426
     47 O7         -2.3040   -0.2610   -2.4110 o         1 MOL     -0.823563
     48 O8         -0.4320   -0.7720   -1.6010 o         1 MOL     -0.823563
     49 H21        -3.1740    1.9270   -1.8990 hn        1 MOL      0.327548
     50 H22        -3.8030    0.3580   -0.1870 h1        1 MOL      0.068344
     51 H23        -1.9080   -0.5980    0.7030 hc        1 MOL      0.178188
     52 H24        -0.9740    0.8630    0.3400 hc        1 MOL      0.178188
     53 N5         -4.4780    1.9100    1.9180 n         1 MOL     -0.309704
     54 C17        -5.6310    1.9550    1.0740 c3        1 MOL      0.004229
     55 C18        -6.9190    2.3260    1.8220 c         1 MOL      0.512407
     56 O9         -6.9700    2.9240    2.9320 o         1 MOL     -0.590628
     57 H25        -4.5480    2.2350    2.8710 hn        1 MOL      0.260568
     58 H26        -5.8320    0.9990    0.5930 h1        1 MOL      0.027862
     59 H27        -5.4620    2.6710    0.2620 h1        1 MOL      0.027862
     60 N6         -8.0850    2.0820    1.3070 n         1 MOL     -0.387488
     61 C19        -8.4350    1.5340   -0.0210 c3        1 MOL      0.027349
     62 C20        -8.1920   -0.0420   -0.1470 c         1 MOL      0.452381
     63 O10        -8.7060   -0.8860    0.6280 o         1 MOL     -0.507319
     64 C21        -9.8920    1.7470   -0.4020 c3        1 MOL     -0.215815
     65 C22       -10.0050    1.8120   -1.9080 c         1 MOL      0.639535
     66 O11       -10.0100    2.8970   -2.5550 o         1 MOL     -0.636333
     67 O12        -9.9300    0.6870   -2.4990 o         1 MOL     -0.636333
     68 H28        -8.9120    2.2410    1.8660 hn        1 MOL      0.303546
     69 H29        -7.8520    2.1420   -0.7190 h1        1 MOL      0.077853
     70 H30       -10.1810    2.6890    0.0500 hc        1 MOL      0.060975
     71 H31       -10.4350    0.9340    0.0710 hc        1 MOL      0.060975
     72 N7         -7.4350   -0.3860   -1.1830 n         1 MOL     -0.231907
     73 C23        -7.0040   -1.7040   -1.4350 c3        1 MOL     -0.095120
     74 C24        -6.1320   -2.2550   -0.2750 c         1 MOL      0.575213
     75 O13        -5.4700   -1.5190    0.4970 o         1 MOL     -0.447251
     76 H32        -7.0100    0.3400   -1.7300 hn        1 MOL      0.247752
     77 H33        -6.5150   -1.8610   -2.3960 h1        1 MOL      0.088378
     78 H34        -7.8810   -2.3530   -1.4860 h1        1 MOL      0.088378
     79 N8         -5.9070   -3.6150   -0.1990 n         1 MOL     -0.581961
     80 C25        -4.9300   -4.3790    0.6180 c3        1 MOL      0.063750
     81 C26        -3.4120   -3.9750    0.5480 c         1 MOL      0.215892
     82 O14        -2.9820   -3.4840   -0.4920 o         1 MOL     -0.433312
     83 C27        -5.0180   -5.8170    0.1140 c3        1 MOL      0.387350
     84 C28        -6.3270   -6.4240    0.5920 c3        1 MOL     -0.428312
     85 O15        -4.0350   -6.6390    0.7220 oh        1 MOL     -0.619975
     86 H35        -6.3080   -4.1390   -0.9610 hn        1 MOL      0.282556
     87 H36        -5.1900   -4.3850    1.6760 h1        1 MOL      0.103207
     88 H37        -4.8800   -6.0130   -0.9460 h1        1 MOL      0.007395
     89 H38        -3.4500   -6.8170   -0.0150 ho        1 MOL      0.391723
     90 H39        -6.4600   -6.4050    1.6730 hc        1 MOL      0.115833
     91 H40        -7.1750   -5.9560    0.0910 hc        1 MOL      0.115833
     92 H41        -6.3840   -7.4730    0.2960 hc        1 MOL      0.115833
     93 N9         -2.6100   -4.2090    1.5730 n         1 MOL     -0.030011
     94 C29        -1.2340   -3.7990    1.7880 c3        1 MOL     -0.267526
     95 C30        -0.2010   -4.8240    1.2340 c         1 MOL      0.364882
     96 O16         0.0060   -5.9270    1.8980 o         1 MOL     -0.503567
     97 C31        -1.0730   -3.4650    3.2620 c3        1 MOL      0.187190
     98 C32        -2.1150   -2.3530    3.7360 c3        1 MOL      0.040260
     99 C33         0.3470   -2.9380    3.4860 c3        1 MOL     -0.291009
    100 C34        -2.0730   -2.1050    5.2490 c3        1 MOL     -0.240449
    101 H42        -3.0950   -4.6800    2.3160 hn        1 MOL      0.200384
    102 H43        -1.0770   -2.8550    1.2660 h1        1 MOL      0.030005
    103 H44        -1.2760   -4.3910    3.7910 hc        1 MOL      0.020292
    104 H45        -3.0910   -2.6810    3.3800 hc        1 MOL      0.034551
    105 H46        -2.0150   -1.4370    3.1500 hc        1 MOL      0.034551
    106 H47         0.5890   -2.0480    2.9160 hc        1 MOL      0.066628
    107 H48         0.4020   -2.6680    4.5420 hc        1 MOL      0.066628
    108 H49         1.0750   -3.7190    3.2560 hc        1 MOL      0.066628
    109 H50        -1.1150   -1.6990    5.5750 hc        1 MOL      0.060211
    110 H51        -2.8260   -1.3920    5.5930 hc        1 MOL      0.060211
    111 H52        -2.2860   -3.0130    5.8080 hc        1 MOL      0.060211
    112 N10         0.5130   -4.5800    0.1030 n         1 MOL     -0.182223
    113 C35         1.6120   -5.4320   -0.4430 c3        1 MOL      0.047987
    114 C36         3.0650   -5.2150    0.0620 c         1 MOL      0.259216
    115 O17         3.9500   -6.0340   -0.1060 o         1 MOL     -0.428931
    116 C37         1.6000   -5.3150   -1.9990 c3        1 MOL      0.083196
    117 C38         2.0530   -3.9420   -2.5110 c3        1 MOL     -0.079882
    118 O18         0.3090   -5.6470   -2.5100 oh        1 MOL     -0.591676
    119 H53         0.4590   -3.6320   -0.2460 hn        1 MOL      0.333940
    120 H54         1.3570   -6.4870   -0.2970 h1        1 MOL      0.120708
    121 H55         2.3240   -6.0410   -2.3550 h1        1 MOL      0.075644
    122 H56         0.4680   -6.0370   -3.3630 ho        1 MOL      0.386098
    123 H57         3.0490   -3.8390   -2.0980 hc        1 MOL      0.052796
    124 H58         2.0870   -3.7950   -3.5890 hc        1 MOL      0.052796
    125 H59         1.3730   -3.2260   -2.0390 hc        1 MOL      0.052796
    126 N11         3.1810   -4.0310    0.6330 n         1 MOL     -0.461641
    127 C39         4.3540   -3.4770    1.2170 c3        1 MOL     -0.062251
    128 C40         5.4820   -3.2310    0.1400 c         1 MOL      0.394306
    129 O19         5.5420   -3.8520   -0.9000 o         1 MOL     -0.392501
    130 C41         4.9610   -4.2640    2.4090 c3        1 MOL      0.338592
    131 C42         3.9480   -4.9330    3.3000 c3        1 MOL     -0.273980
    132 O20         5.8690   -3.4530    3.1560 oh        1 MOL     -0.679833
    133 H60         2.3440   -3.4890    0.7670 hn        1 MOL      0.316270
    134 H61         3.9500   -2.5010    1.4950 h1        1 MOL      0.074789
    135 H62         5.4950   -5.0630    1.8920 h1        1 MOL      0.109021
    136 H63         5.4400   -2.8430    3.7650 ho        1 MOL      0.404060
    137 H64         3.2840   -4.2570    3.8360 hc        1 MOL      0.086602
    138 H65         3.2680   -5.5150    2.6690 hc        1 MOL      0.086602
    139 H66         4.4410   -5.6110    3.9950 hc        1 MOL      0.086602
    140 N12         6.3340   -2.1820    0.4560 n         1 MOL     -0.207327
    141 C43         7.4560   -1.6360   -0.4070 c3        1 MOL     -0.362958
    142 C44         7.0810   -0.5340   -1.3940 c         1 MOL      0.613699
    143 O21         7.8450   -0.2110   -2.2620 o         1 MOL     -0.562464
    144 C45         8.6310   -1.1550    0.4450 c3        1 MOL      0.314534
    145 C46         8.3210    0.0930    1.3490 c3        1 MOL      0.081235
    146 C47         9.5420    0.8500    1.8480 c3        1 MOL      0.034633
    147 C48         9.3870    1.3600    3.2940 c3        1 MOL     -0.074281
    148 N13         9.2310    0.3400    4.3370 n4        1 MOL     -0.267721
    149 H67         6.0830   -1.7410    1.3230 hn        1 MOL      0.175655
    150 H68         7.8280   -2.5200   -0.9430 h1        1 MOL      0.200616
    151 H69         9.4810   -0.8720   -0.1780 hc        1 MOL     -0.073535
    152 H70         9.0100   -1.9850    1.0510 hc        1 MOL     -0.073535
    153 H71         7.8620   -0.4010    2.2060 hc        1 MOL     -0.061947
    154 H72         7.7220    0.8350    0.8230 hc        1 MOL     -0.061947
    155 H73         9.7140    1.6980    1.1880 hc        1 MOL      0.029297
    156 H74        10.3870    0.1520    1.8330 hc        1 MOL      0.029297
    157 H75         8.4950    1.9890    3.2740 hx        1 MOL      0.105891
    158 H76        10.2330    2.0050    3.5270 hx        1 MOL      0.105891
    159 H77         8.3410   -0.1270    4.2430 hn        1 MOL      0.259746
    160 H78         9.9500   -0.3650    4.2690 hn        1 MOL      0.259746
    161 H79         9.2460    0.8020    5.2370 hn        1 MOL      0.259746
    162 N14         5.9400    0.0810   -1.2320 n         1 MOL      0.016536
    163 C49         5.3170    1.1610   -2.0490 c3        1 MOL     -0.501155
    164 C50         6.0100    2.5200   -1.9690 c         1 MOL      0.568202
    165 O22         5.6130    3.4010   -1.2170 o         1 MOL     -0.506530
    166 C51         3.8310    1.2020   -1.6810 c3        1 MOL      0.505764
    167 C52         3.0860   -0.1130   -1.9190 c3        1 MOL     -0.461901
    168 C53         3.0890   -0.7420   -3.3240 c         1 MOL      0.715801
    169 O23         2.0190   -0.6460   -4.0400 o         1 MOL     -0.756266
    170 O24         3.9990   -1.5140   -3.6880 o         1 MOL     -0.756266
    171 H80         5.4400   -0.1400   -0.3890 hn        1 MOL      0.105592
    172 H81         5.3340    0.7790   -3.0710 h1        1 MOL      0.236224
    173 H82         3.2410    1.9360   -2.2260 hc        1 MOL     -0.074678
    174 H83         3.6490    1.4240   -0.6260 hc        1 MOL     -0.074678
    175 H84         2.0820    0.0640   -1.5230 hc        1 MOL      0.086832
    176 H85         3.4850   -0.8390   -1.2100 hc        1 MOL      0.086832
    177 N15         7.1190    2.6500   -2.7070 n         1 MOL     -0.358512
    178 C54         7.8260    3.9320   -2.8830 c3        1 MOL     -0.138460
    179 H86         8.0990    4.0540   -3.9320 h1        1 MOL      0.086028
    180 H87         7.1730    4.7510   -2.5800 h1        1 MOL      0.086028
    181 H88         8.7270    3.9380   -2.2700 h1        1 MOL      0.086028
    182 H89         7.5550    1.8460   -3.1350 hn        1 MOL      0.271509
    183 Ca1        -0.4820   -0.9210   -4.3100 Ca        1 MOL      1.775576
    184 O25        -1.0370   -3.6390   -4.0050 oh        1 MOL     -0.959736
    185 H90        -0.6260   -4.1470   -4.7040 ho        1 MOL      0.456606
    186 H91        -1.0810   -4.2430   -3.2580 ho        1 MOL      0.456606
    187 O26        -0.1870    1.8830   -3.6560 oh        1 MOL     -0.959736
    188 H92        -0.5080    2.7370   -3.9690 ho        1 MOL      0.456606
    189 H93         0.3810    2.0980   -2.9200 ho        1 MOL      0.456606
@<TRIPOS>BOND
     1    1    2 1   
     2    1    4 1   
     3    1    5 1   
     4    1    6 1   
     5    2    3 2   
     6    2    7 1   
     7    7    8 1   
     8    7   15 1   
     9    8    9 1   
    10    8   11 1   
    11    8   16 1   
    12    9   10 2   
    13    9   19 1   
    14   11   12 1   
    15   11   17 1   
    16   11   18 1   
    17   12   13 1   
    18   12   14 1   
    19   19   20 1   
    20   19   28 1   
    21   20   21 1   
    22   20   23 1   
    23   20   29 1   
    24   21   22 2   
    25   21   41 1   
    26   23   24 1   
    27   23   30 1   
    28   23   31 1   
    29   24   25 1   
    30   24   32 1   
    31   24   33 1   
    32   25   26 1   
    33   25   34 1   
    34   25   35 1   
    35   26   27 1   
    36   26   36 1   
    37   26   37 1   
    38   27   38 1   
    39   27   39 1   
    40   27   40 1   
    41   41   42 1   
    42   41   49 1   
    43   42   43 1   
    44   42   45 1   
    45   42   50 1   
    46   43   44 2   
    47   43   53 1   
    48   45   46 1   
    49   45   51 1   
    50   45   52 1   
    51   46   47 1   
    52   46   48 1   
    53   53   54 1   
    54   53   57 1   
    55   54   55 1   
    56   54   58 1   
    57   54   59 1   
    58   55   56 2   
    59   55   60 1   
    60   60   61 1   
    61   60   68 1   
    62   61   62 1   
    63   61   64 1   
    64   61   69 1   
    65   62   63 2   
    66   62   72 1   
    67   64   65 1   
    68   64   70 1   
    69   64   71 1   
    70   65   66 1   
    71   65   67 1   
    72   72   73 1   
    73   72   76 1   
    74   73   74 1   
    75   73   77 1   
    76   73   78 1   
    77   74   75 2   
    78   74   79 1   
    79   79   80 1   
    80   79   86 1   
    81   80   81 1   
    82   80   83 1   
    83   80   87 1   
    84   81   82 2   
    85   81   93 1   
    86   83   84 1   
    87   83   85 1   
    88   83   88 1   
    89   84   90 1   
    90   84   91 1   
    91   84   92 1   
    92   85   89 1   
    93   93   94 1   
    94   93  101 1   
    95   94   95 1   
    96   94   97 1   
    97   94  102 1   
    98   95   96 2   
    99   95  112 1   
   100   97   98 1   
   101   97   99 1   
   102   97  103 1   
   103   98  100 1   
   104   98  104 1   
   105   98  105 1   
   106   99  106 1   
   107   99  107 1   
   108   99  108 1   
   109  100  109 1   
   110  100  110 1   
   111  100  111 1   
   112  112  113 1   
   113  112  119 1   
   114  113  114 1   
   115  113  116 1   
   116  113  120 1   
   117  114  115 2   
   118  114  126 1   
   119  116  117 1   
   120  116  118 1   
   121  116  121 1   
   122  117  123 1   
   123  117  124 1   
   124  117  125 1   
   125  118  122 1   
   126  126  127 1   
   127  126  133 1   
   128  127  128 1   
   129  127  130 1   
   130  127  134 1   
   131  128  129 2   
   132  128  140 1   
   133  130  131 1   
   134  130  132 1   
   135  130  135 1   
   136  131  137 1   
   137  131  138 1   
   138  131  139 1   
   139  132  136 1   
   140  140  141 1   
   141  140  149 1   
   142  141  142 1   
   143  141  144 1   
   144  141  150 1   
   145  142  143 2   
   146  142  162 1   
   147  144  145 1   
   148  144  151 1   
   149  144  152 1   
   150  145  146 1   
   151  145  153 1   
   152  145  154 1   
   153  146  147 1   
   154  146  155 1   
   155  146  156 1   
   156  147  148 1   
   157  147  157 1   
   158  147  158 1   
   159  148  159 1   
   160  148  160 1   
   161  148  161 1   
   162  162  163 1   
   163  162  171 1   
   164  163  164 1   
   165  163  166 1   
   166  163  172 1   
   167  164  165 2   
   168  164  177 1   
   169  166  167 1   
   170  166  173 1   
   171  166  174 1   
   172  167  168 1   
   173  167  175 1   
   174  167  176 1   
   175  168  169 1   
   176  168  170 1   
   177  177  178 1   
   178  177  182 1   
   179  178  179 1   
   180  178  180 1   
   181  178  181 1   
   182  184  185 1   
   183  184  186 1   
   184  187  188 1   
   185  187  189 1   
@<TRIPOS>SUBSTRUCTURE
     1 MOL         1 TEMP              0 ****  ****    0 ROOT
