@<TRIPOS>MOLECULE
MOL
  188   182     1     0     0
SMALL
resp


@<TRIPOS>ATOM
      1 C1         -6.7330   -2.2010    3.3510 c3        1 MOL     -0.343884
      2 C2         -7.2580   -1.8420    1.9520 c         1 MOL      0.645778
      3 O1         -6.5030   -1.4410    1.0210 o         1 MOL     -0.568062
      4 H1         -7.5540   -2.1610    4.0680 hc        1 MOL      0.088742
      5 H2         -6.3130   -3.2070    3.3360 hc        1 MOL      0.088742
      6 H3         -5.9610   -1.4890    3.6440 hc        1 MOL      0.088742
      7 N1         -8.5320   -2.1100    1.6990 n         1 MOL     -0.553906
      8 C3         -9.2410   -2.0110    0.3700 c3        1 MOL      0.334284
      9 C4         -9.0880   -0.6320   -0.3200 c         1 MOL      0.483824
     10 O2         -9.1830   -0.4110   -1.5170 o         1 MOL     -0.487041
     11 C5         -8.8560   -3.1770   -0.5420 c3        1 MOL     -0.370500
     12 C6         -9.9510   -3.5460   -1.6060 c         1 MOL      0.680300
     13 O3         -9.6210   -4.2230   -2.6200 o         1 MOL     -0.638927
     14 O4        -11.1230   -3.2040   -1.3800 o         1 MOL     -0.638927
     15 H4         -9.1640   -2.4600    2.4120 hn        1 MOL      0.305572
     16 H5        -10.3220   -1.9800    0.5150 h1        1 MOL     -0.023424
     17 H6         -8.6900   -4.0150    0.1370 hc        1 MOL      0.102577
     18 H7         -7.9500   -2.8840   -1.0650 hc        1 MOL      0.102577
     19 N2         -8.9150    0.4280    0.4740 n         1 MOL     -0.413475
     20 C7         -8.8160    1.8120    0.0210 c3        1 MOL      0.003026
     21 C8         -7.3450    2.2370   -0.3480 c         1 MOL      0.552955
     22 O5         -7.1190    3.3470   -0.8120 o         1 MOL     -0.561131
     23 C9         -9.4110    2.6480    1.1780 c3        1 MOL      0.091642
     24 C10        -9.8020    4.1070    0.7910 c3        1 MOL     -0.122856
     25 C11       -10.6390    4.7600    1.8770 c3        1 MOL      0.114798
     26 C12        -9.8540    5.1720    3.0470 c3        1 MOL     -0.020808
     27 N3        -10.7430    5.6120    4.1860 n4        1 MOL     -0.241522
     28 H8         -8.8840    0.2390    1.4620 hn        1 MOL      0.160536
     29 H9         -9.3310    2.0370   -0.9080 h1        1 MOL      0.128225
     30 H10        -8.5870    2.6970    1.8880 hc        1 MOL     -0.009345
     31 H11       -10.2310    2.1400    1.6750 hc        1 MOL     -0.009345
     32 H12       -10.3490    4.1050   -0.1510 hc        1 MOL      0.047817
     33 H13        -8.9060    4.7100    0.6330 hc        1 MOL      0.047817
     34 H14       -11.3660    4.0120    2.1890 hc        1 MOL      0.004882
     35 H15       -11.1830    5.5890    1.4200 hc        1 MOL      0.004882
     36 H16        -9.3120    6.0680    2.7550 hx        1 MOL      0.077855
     37 H17        -9.2410    4.3310    3.3670 hx        1 MOL      0.077855
     38 H18       -11.5170    4.9680    4.2380 hn        1 MOL      0.218942
     39 H19       -10.2810    5.3850    5.0590 hn        1 MOL      0.218942
     40 H20       -11.2440    6.4730    4.0880 hn        1 MOL      0.218942
     41 N4         -6.3180    1.3640   -0.2890 n         1 MOL     -0.296352
     42 C13        -4.8540    1.7960   -0.3340 c3        1 MOL     -0.428505
     43 C14        -4.3930    2.2900   -1.7250 c         1 MOL      0.688916
     44 O6         -4.6370    1.6110   -2.7160 o         1 MOL     -0.483350
     45 C15        -3.9970    0.5980    0.0860 c3        1 MOL      0.248320
     46 C16        -2.5710    1.0990    0.4340 c         1 MOL      0.433515
     47 O7         -2.2770    1.5290    1.5540 o         1 MOL     -0.625975
     48 O8         -1.6960    1.0020   -0.4550 o         1 MOL     -0.625975
     49 H21        -6.4920    0.4250    0.0110 hn        1 MOL      0.250054
     50 H22        -4.6570    2.5190    0.4500 h1        1 MOL      0.134047
     51 H23        -3.9090   -0.2220   -0.6270 hc        1 MOL     -0.013667
     52 H24        -4.3950    0.1890    1.0070 hc        1 MOL     -0.013667
     53 N5         -3.5390    3.3110   -1.8080 n         1 MOL     -0.363042
     54 C17        -3.0900    3.9270   -3.0530 c3        1 MOL     -0.176690
     55 C18        -2.2200    3.0690   -3.9630 c         1 MOL      0.527379
     56 O9         -2.1040    3.3440   -5.1590 o         1 MOL     -0.544894
     57 H25        -3.2940    3.7780   -0.9480 hn        1 MOL      0.268315
     58 H26        -2.4830    4.8140   -2.8610 h1        1 MOL      0.118289
     59 H27        -3.9740    4.2190   -3.6230 h1        1 MOL      0.118289
     60 N6         -1.6220    1.9500   -3.4500 n         1 MOL     -0.180095
     61 C19        -0.8110    1.0030   -4.2050 c3        1 MOL     -0.049269
     62 C20        -1.1400   -0.5320   -3.8070 c         1 MOL      0.344734
     63 O10        -0.4260   -1.4890   -4.0640 o         1 MOL     -0.460160
     64 C21         0.7350    1.3460   -4.1970 c3        1 MOL     -0.255675
     65 C22         1.4240    1.2830   -2.8320 c         1 MOL      0.577513
     66 N7          2.6010    1.7740   -2.8340 n         1 MOL     -0.717945
     67 O11         0.9920    0.7030   -1.8530 o         1 MOL     -0.538421
     68 H28        -1.6730    1.8510   -2.4470 hn        1 MOL      0.070077
     69 H29        -1.0660    1.0720   -5.2680 h1        1 MOL      0.139856
     70 H30         0.8430    2.3270   -4.6640 hc        1 MOL      0.113623
     71 H31         1.2460    0.5840   -4.7760 hc        1 MOL      0.113623
     72 H32         2.9160    2.3340   -3.6150 hn        1 MOL      0.350231
     73 H33         3.1720    1.5860   -2.0310 hn        1 MOL      0.350231
     74 N8         -2.3290   -0.7800   -3.2000 n         1 MOL     -0.041081
     75 C23        -3.0020   -1.9990   -2.9520 c3        1 MOL     -0.174927
     76 C24        -2.2760   -2.8440   -1.9250 c         1 MOL      0.539634
     77 O12        -2.3530   -4.0740   -2.0730 o         1 MOL     -0.521736
     78 H34        -3.0210   -0.0450   -3.2430 hn        1 MOL      0.118338
     79 H35        -3.1640   -2.5290   -3.8920 h1        1 MOL      0.125624
     80 H36        -3.9670   -1.7460   -2.5190 h1        1 MOL      0.125624
     81 N9         -1.6770   -2.1990   -0.8780 n         1 MOL     -0.440333
     82 C25        -0.9650   -2.9310    0.1950 c3        1 MOL      0.079177
     83 C26         0.3480   -2.2610    0.6310 c         1 MOL      0.696722
     84 O13         0.4370   -1.0280    0.7720 o         1 MOL     -0.630913
     85 C27        -2.0240   -3.1130    1.3210 c3        1 MOL     -0.037602
     86 C28        -1.3880   -3.5070    2.6550 ca        1 MOL     -0.042701
     87 C29        -1.0660   -4.8670    2.8640 ca        1 MOL     -0.101204
     88 C30        -1.2740   -2.5310    3.6570 ca        1 MOL     -0.101204
     89 C31        -0.3600   -5.2090    3.9920 ca        1 MOL     -0.254879
     90 C32        -0.7170   -2.9510    4.8990 ca        1 MOL     -0.254879
     91 C33        -0.1770   -4.2370    5.0480 ca        1 MOL      0.352277
     92 O14         0.3810   -4.5470    6.2510 oh        1 MOL     -0.491709
     93 H37        -1.7450   -1.2000   -0.7200 hn        1 MOL      0.215494
     94 H38        -0.6490   -3.9450   -0.0480 h1        1 MOL      0.032480
     95 H39        -2.7820   -3.8610    1.1200 hc        1 MOL      0.077863
     96 H40        -2.6160   -2.1930    1.3690 hc        1 MOL      0.077863
     97 H41        -1.3250   -5.5530    2.0740 ha        1 MOL      0.131929
     98 H42        -1.4750   -1.4920    3.4510 ha        1 MOL      0.131929
     99 H43         0.0700   -6.1810    4.1790 ha        1 MOL      0.129595
    100 H44        -0.6200   -2.2120    5.6820 ha        1 MOL      0.129595
    101 H45         0.7490   -3.8320    6.7800 ho        1 MOL      0.366755
    102 N10         1.3860   -3.0620    0.8390 n         1 MOL     -0.646519
    103 C34         2.7920   -2.5820    1.1740 c3        1 MOL      0.011100
    104 C35         3.3790   -1.9390   -0.1260 c         1 MOL      0.319816
    105 O15         4.0530   -0.8520   -0.0890 o         1 MOL     -0.505819
    106 C36         3.6080   -3.7510    1.7950 c3        1 MOL      0.009681
    107 C37         3.0860   -4.1430    3.2620 c3        1 MOL      0.260310
    108 C38         5.0960   -3.4690    1.8920 c3        1 MOL     -0.343100
    109 C39         3.6450   -5.3290    4.0770 c3        1 MOL     -0.281435
    110 H46         1.2590   -4.0590    0.9520 hn        1 MOL      0.339321
    111 H47         2.6640   -1.7750    1.8860 h1        1 MOL      0.103939
    112 H48         3.4980   -4.6500    1.1980 hc        1 MOL      0.036080
    113 H49         2.0070   -4.2810    3.2160 hc        1 MOL     -0.061593
    114 H50         3.0860   -3.2080    3.8340 hc        1 MOL     -0.061593
    115 H51         5.5320   -3.0330    1.0000 hc        1 MOL      0.099141
    116 H52         5.2400   -2.6640    2.6260 hc        1 MOL      0.099141
    117 H53         5.6020   -4.2910    2.4000 hc        1 MOL      0.099141
    118 H54         4.5640   -5.0550    4.5780 hc        1 MOL      0.077970
    119 H55         2.9610   -5.5600    4.8870 hc        1 MOL      0.077970
    120 H56         3.8580   -6.0860    3.3150 hc        1 MOL      0.077970
    121 N11         3.1710   -2.6820   -1.2150 n         1 MOL     -0.143972
    122 C40         3.4850   -2.1740   -2.6040 c3        1 MOL     -0.032476
    123 C41         4.9750   -1.8790   -2.9650 c         1 MOL      0.330475
    124 O16         5.2630   -0.9770   -3.7290 o         1 MOL     -0.479267
    125 C42         2.8090   -3.0890   -3.6450 c3        1 MOL      0.271962
    126 O17         1.5120   -3.4750   -3.2170 oh        1 MOL     -0.590318
    127 H57         2.7710   -3.6190   -1.2240 hn        1 MOL      0.237155
    128 H58         2.9900   -1.2150   -2.7900 h1        1 MOL      0.105906
    129 H59         3.4800   -3.9360   -3.7430 h1        1 MOL      0.020483
    130 H60         2.8070   -2.6300   -4.6360 h1        1 MOL      0.020483
    131 H61         0.9380   -2.7180   -3.0830 ho        1 MOL      0.371299
    132 N12         5.9060   -2.6280   -2.4090 n         1 MOL     -0.322487
    133 C43         7.3560   -2.5420   -2.6580 c3        1 MOL      0.256947
    134 C44         8.0520   -1.1860   -2.4220 c         1 MOL      0.550274
    135 O18         9.2620   -1.0490   -2.7300 o         1 MOL     -0.550915
    136 C45         7.6990   -3.1880   -3.9620 c3        1 MOL     -0.335650
    137 H62         5.4970   -3.3950   -1.8910 hn        1 MOL      0.217433
    138 H63         7.9000   -3.1260   -1.9100 h1        1 MOL      0.018770
    139 H64         7.5940   -4.2620   -3.8700 hc        1 MOL      0.093916
    140 H65         6.9630   -2.9030   -4.7190 hc        1 MOL      0.093916
    141 H66         8.6740   -2.8010   -4.2500 hc        1 MOL      0.093916
    142 N13         7.3690   -0.2170   -1.8710 n         1 MOL     -0.611612
    143 C46         7.9120    1.0910   -1.5560 c3        1 MOL      0.514689
    144 C47         8.4210    1.2420   -0.1130 c         1 MOL      0.321004
    145 O19         7.8670    0.6920    0.7820 o         1 MOL     -0.455824
    146 C48         6.8250    2.1130   -1.9190 c3        1 MOL     -0.226998
    147 H67         6.3880   -0.3500   -1.6850 hn        1 MOL      0.269295
    148 H68         8.7530    1.2790   -2.2060 h1        1 MOL     -0.043690
    149 H69         6.7070    2.2370   -2.9890 hc        1 MOL      0.052294
    150 H70         5.8910    1.7020   -1.5370 hc        1 MOL      0.052294
    151 H71         6.9690    3.0520   -1.4020 hc        1 MOL      0.052294
    152 N14         9.3840    2.1490    0.0260 n         1 MOL     -0.397686
    153 C49         9.9640    2.4910    1.3180 c3        1 MOL      0.004550
    154 C50        10.3090    1.2760    2.2830 c         1 MOL      0.355154
    155 O20        10.2460    1.3330    3.5110 o         1 MOL     -0.481278
    156 C51         9.0640    3.5450    2.0570 c3        1 MOL      0.141336
    157 C52         8.8630    4.8920    1.3100 c3        1 MOL     -0.038551
    158 C53         8.1080    5.8120    2.2240 c         1 MOL      0.681822
    159 O21         8.7660    6.4010    3.0750 o         1 MOL     -0.691596
    160 O22         6.8520    5.9240    2.0740 o         1 MOL     -0.691596
    161 H72         9.6700    2.6100   -0.8230 hn        1 MOL      0.267039
    162 H73        10.9280    2.9720    1.1290 h1        1 MOL      0.058057
    163 H74         9.4050    3.7640    3.0650 hc        1 MOL     -0.007893
    164 H75         8.0650    3.1370    2.2060 hc        1 MOL     -0.007893
    165 H76         8.1940    4.8150    0.4580 hc        1 MOL     -0.043432
    166 H77         9.7420    5.3560    0.8760 hc        1 MOL     -0.043432
    167 N15        10.6550    0.1650    1.6760 n         1 MOL     -0.127752
    168 C54        10.8540   -1.1020    2.3830 c3        1 MOL     -0.300295
    169 H78        10.0130   -1.2800    3.0530 h1        1 MOL      0.120670
    170 H79        10.9210   -1.9140    1.6600 h1        1 MOL      0.120670
    171 H80        11.7760   -1.0530    2.9620 h1        1 MOL      0.120670
    172 H81        10.7980    0.2210    0.6820 hn        1 MOL      0.180802
    173 Ca1         0.3920    1.7380    0.8460 Ca        1 MOL      1.757347
    174 O23        -0.6750    4.0720    2.0240 oh        1 MOL     -0.849122
    175 H82        -1.4420    4.4040    2.4890 ho        1 MOL      0.420762
    176 H83        -0.0430    4.7920    2.0460 ho        1 MOL      0.420762
    177 O24         3.0470    1.4390    0.3560 oh        1 MOL     -0.849122
    178 H84         3.7500    1.7140    0.9490 ho        1 MOL      0.420762
    179 H85         3.3020    0.5520    0.0770 ho        1 MOL      0.420762
    180 O25         2.0720    3.2720    2.3830 oh        1 MOL     -0.849122
    181 H86         2.1350    4.2040    2.1870 ho        1 MOL      0.420762
    182 H87         2.4340    3.1830    3.2580 ho        1 MOL      0.420762
    183 O26         0.9220    3.8910   -0.8220 oh        1 MOL     -0.849122
    184 H88         1.7260    4.0280   -1.3210 ho        1 MOL      0.420762
    185 H89         0.5120    4.7550   -0.7920 ho        1 MOL      0.420762
    186 O27         0.3830    0.8210    3.2890 oh        1 MOL     -0.849122
    187 H90         0.1260    1.3690    4.0380 ho        1 MOL      0.420762
    188 H91         1.0380    0.2200    3.6560 ho        1 MOL      0.420762
@<TRIPOS>BOND
     1    1    2 1   
     2    1    4 1   
     3    1    5 1   
     4    1    6 1   
     5    2    3 2   
     6    2    7 1   
     7    7    8 1   
     8    7   15 1   
     9    8    9 1   
    10    8   11 1   
    11    8   16 1   
    12    9   10 2   
    13    9   19 1   
    14   11   12 1   
    15   11   17 1   
    16   11   18 1   
    17   12   13 1   
    18   12   14 1   
    19   19   20 1   
    20   19   28 1   
    21   20   21 1   
    22   20   23 1   
    23   20   29 1   
    24   21   22 2   
    25   21   41 1   
    26   23   24 1   
    27   23   30 1   
    28   23   31 1   
    29   24   25 1   
    30   24   32 1   
    31   24   33 1   
    32   25   26 1   
    33   25   34 1   
    34   25   35 1   
    35   26   27 1   
    36   26   36 1   
    37   26   37 1   
    38   27   38 1   
    39   27   39 1   
    40   27   40 1   
    41   41   42 1   
    42   41   49 1   
    43   42   43 1   
    44   42   45 1   
    45   42   50 1   
    46   43   44 2   
    47   43   53 1   
    48   45   46 1   
    49   45   51 1   
    50   45   52 1   
    51   46   47 1   
    52   46   48 1   
    53   53   54 1   
    54   53   57 1   
    55   54   55 1   
    56   54   58 1   
    57   54   59 1   
    58   55   56 2   
    59   55   60 1   
    60   60   61 1   
    61   60   68 1   
    62   61   62 1   
    63   61   64 1   
    64   61   69 1   
    65   62   63 2   
    66   62   74 1   
    67   64   65 1   
    68   64   70 1   
    69   64   71 1   
    70   65   66 1   
    71   65   67 2   
    72   66   72 1   
    73   66   73 1   
    74   74   75 1   
    75   74   78 1   
    76   75   76 1   
    77   75   79 1   
    78   75   80 1   
    79   76   77 2   
    80   76   81 1   
    81   81   82 1   
    82   81   93 1   
    83   82   83 1   
    84   82   85 1   
    85   82   94 1   
    86   83   84 2   
    87   83  102 1   
    88   85   86 1   
    89   85   95 1   
    90   85   96 1   
    91   86   87 ar  
    92   86   88 ar  
    93   87   89 ar  
    94   87   97 1   
    95   88   90 ar  
    96   88   98 1   
    97   89   91 ar  
    98   89   99 1   
    99   90   91 ar  
   100   90  100 1   
   101   91   92 1   
   102   92  101 1   
   103  102  103 1   
   104  102  110 1   
   105  103  104 1   
   106  103  106 1   
   107  103  111 1   
   108  104  105 2   
   109  104  121 1   
   110  106  107 1   
   111  106  108 1   
   112  106  112 1   
   113  107  109 1   
   114  107  113 1   
   115  107  114 1   
   116  108  115 1   
   117  108  116 1   
   118  108  117 1   
   119  109  118 1   
   120  109  119 1   
   121  109  120 1   
   122  121  122 1   
   123  121  127 1   
   124  122  123 1   
   125  122  125 1   
   126  122  128 1   
   127  123  124 2   
   128  123  132 1   
   129  125  126 1   
   130  125  129 1   
   131  125  130 1   
   132  126  131 1   
   133  132  133 1   
   134  132  137 1   
   135  133  134 1   
   136  133  136 1   
   137  133  138 1   
   138  134  135 2   
   139  134  142 1   
   140  136  139 1   
   141  136  140 1   
   142  136  141 1   
   143  142  143 1   
   144  142  147 1   
   145  143  144 1   
   146  143  146 1   
   147  143  148 1   
   148  144  145 2   
   149  144  152 1   
   150  146  149 1   
   151  146  150 1   
   152  146  151 1   
   153  152  153 1   
   154  152  161 1   
   155  153  154 1   
   156  153  156 1   
   157  153  162 1   
   158  154  155 2   
   159  154  167 1   
   160  156  157 1   
   161  156  163 1   
   162  156  164 1   
   163  157  158 1   
   164  157  165 1   
   165  157  166 1   
   166  158  159 1   
   167  158  160 1   
   168  167  168 1   
   169  167  172 1   
   170  168  169 1   
   171  168  170 1   
   172  168  171 1   
   173  174  175 1   
   174  174  176 1   
   175  177  178 1   
   176  177  179 1   
   177  180  181 1   
   178  180  182 1   
   179  183  184 1   
   180  183  185 1   
   181  186  187 1   
   182  186  188 1   
@<TRIPOS>SUBSTRUCTURE
     1 MOL         1 TEMP              0 ****  ****    0 ROOT
