@<TRIPOS>MOLECULE
MOL
  192   187     1     0     0
SMALL
resp


@<TRIPOS>ATOM
      1 C1          9.5270    0.4750    1.7720 c3        1 MOL     -0.602486
      2 C2          8.3890   -0.0950    0.9240 c         1 MOL      0.885856
      3 O1          7.3400   -0.4150    1.4740 o         1 MOL     -0.703493
      4 H1          9.1170    0.9060    2.6860 hc        1 MOL      0.151615
      5 H2         10.2250   -0.3210    2.0260 hc        1 MOL      0.151615
      6 H3         10.0480    1.2500    1.2080 hc        1 MOL      0.151615
      7 N1          8.6220   -0.1720   -0.4050 n         1 MOL     -0.874162
      8 C3          7.6270   -0.1680   -1.5280 c3        1 MOL      0.388881
      9 C4          6.8790   -1.4880   -1.6980 c         1 MOL      0.283696
     10 O2          6.6130   -1.9780   -2.8320 o         1 MOL     -0.506705
     11 C5          8.3540    0.3790   -2.7930 c3        1 MOL     -0.294161
     12 C6          9.2160    1.6870   -2.6370 c         1 MOL      0.700174
     13 O3          9.3000    2.2280   -1.5140 o         1 MOL     -0.649095
     14 O4         10.0380    1.9790   -3.5300 o         1 MOL     -0.649095
     15 H4          9.5730    0.1110   -0.5970 hn        1 MOL      0.404343
     16 H5          6.8160    0.5030   -1.2670 h1        1 MOL      0.025544
     17 H6          7.7230    0.4830   -3.6750 hc        1 MOL      0.075406
     18 H7          9.0400   -0.4580   -2.9280 hc        1 MOL      0.075406
     19 N2          6.6950   -2.1680   -0.6180 n         1 MOL     -0.071487
     20 C7          6.2420   -3.5300   -0.4910 c3        1 MOL     -0.049897
     21 C8          4.7580   -3.7390   -0.7790 c         1 MOL      0.525498
     22 O5          4.4610   -4.7390   -1.4090 o         1 MOL     -0.552604
     23 C9          6.6600   -4.0850    0.9110 c3        1 MOL     -0.051246
     24 C10         8.2230   -4.1310    1.1020 c3        1 MOL      0.074377
     25 C11         8.6710   -4.7750    2.3840 c3        1 MOL      0.032507
     26 C12        10.1580   -4.5210    2.6790 c3        1 MOL      0.098665
     27 N3         10.4150   -5.0540    4.0480 n4        1 MOL     -0.308527
     28 H8          6.9120   -1.7380    0.2770 hn        1 MOL      0.235639
     29 H9          6.8130   -4.1940   -1.1430 h1        1 MOL      0.085584
     30 H10         6.1680   -5.0430    1.0470 hc        1 MOL      0.015531
     31 H11         6.1930   -3.4580    1.6690 hc        1 MOL      0.015531
     32 H12         8.5350   -3.0810    1.1340 hc        1 MOL     -0.016263
     33 H13         8.7280   -4.4640    0.1930 hc        1 MOL     -0.016263
     34 H14         8.4800   -5.8430    2.3550 hc        1 MOL      0.001024
     35 H15         8.1070   -4.3830    3.2370 hc        1 MOL      0.001024
     36 H16        10.3780   -3.4650    2.5180 hx        1 MOL      0.052708
     37 H17        10.7340   -5.0650    1.9280 hx        1 MOL      0.052708
     38 H18        11.3720   -5.0140    4.3830 hn        1 MOL      0.269151
     39 H19         9.9190   -4.3400    4.5550 hn        1 MOL      0.269151
     40 H20        10.0500   -5.9800    4.2300 hn        1 MOL      0.269151
     41 N4          3.7440   -2.9870   -0.3240 n         1 MOL     -0.320749
     42 C13         3.8510   -1.9020    0.6480 c3        1 MOL      0.013119
     43 C14         3.9900   -0.5070    0.0410 c         1 MOL      0.011171
     44 O6          3.9860   -0.3770   -1.2090 o         1 MOL     -0.339438
     45 C15         2.7090   -2.0270    1.6800 c3        1 MOL     -0.181931
     46 C16         1.3000   -2.3760    1.1380 c         1 MOL      0.667560
     47 O7          0.8760   -1.8910    0.0200 o         1 MOL     -0.666202
     48 O8          0.6630   -3.2770    1.6100 o         1 MOL     -0.666202
     49 H21         2.8200   -3.3260   -0.5600 hn        1 MOL      0.316834
     50 H22         4.6670   -2.1200    1.3400 h1        1 MOL      0.122409
     51 H23         2.6730   -1.1920    2.3880 hc        1 MOL      0.020916
     52 H24         2.9220   -2.9540    2.2190 hc        1 MOL      0.020916
     53 N5          4.2350    0.5870    0.8720 n         1 MOL     -0.083010
     54 C17         4.2860    1.9870    0.3480 c3        1 MOL     -0.064505
     55 C18         3.0230    2.5430   -0.3470 c         1 MOL      0.624906
     56 O9          2.0310    1.8240   -0.3890 o         1 MOL     -0.679551
     57 H25         4.5090    0.3580    1.8130 hn        1 MOL      0.242061
     58 H26         5.1920    1.9900   -0.2640 h1        1 MOL      0.066061
     59 H27         4.5630    2.7210    1.1110 h1        1 MOL      0.066061
     60 N6          3.0400    3.7170   -0.9000 n         1 MOL     -0.419575
     61 C19         2.0690    4.5480   -1.6200 c3        1 MOL      0.185174
     62 C20         2.4590    6.0120   -1.5850 c         1 MOL      0.429782
     63 O10         3.6450    6.3270   -1.4370 o         1 MOL     -0.496406
     64 C21         1.8850    4.0550   -3.0530 c3        1 MOL     -0.197272
     65 C22         1.4990    2.5730   -3.1790 c         1 MOL      0.688521
     66 O11         2.1620    1.8540   -3.9490 o         1 MOL     -0.681069
     67 O12         0.4790    2.2590   -2.5790 o         1 MOL     -0.681069
     68 H28         3.9670    4.1100   -0.9420 hn        1 MOL      0.245165
     69 H29         1.1670    4.5130   -1.0110 h1        1 MOL      0.081324
     70 H30         2.8170    4.2440   -3.5940 hc        1 MOL      0.062700
     71 H31         1.0840    4.6560   -3.4780 hc        1 MOL      0.062700
     72 N7          1.4820    6.9810   -1.7320 n         1 MOL     -0.456034
     73 C23         0.0090    6.7790   -1.9400 c3        1 MOL     -0.072172
     74 C24        -0.7450    6.3310   -0.6320 c         1 MOL      0.607908
     75 O13        -0.5170    6.8810    0.4390 o         1 MOL     -0.526860
     76 H32         1.7880    7.9360   -1.7280 hn        1 MOL      0.326808
     77 H33        -0.2180    6.1410   -2.7960 h1        1 MOL      0.081354
     78 H34        -0.4910    7.6750   -2.2900 h1        1 MOL      0.081354
     79 N8         -1.5560    5.2780   -0.7180 n         1 MOL     -0.562907
     80 C25        -2.1860    4.6190    0.4260 c3        1 MOL      0.039694
     81 C26        -1.3420    3.4510    0.9990 c         1 MOL      1.002005
     82 O14        -0.7360    2.7060    0.2170 o         1 MOL     -0.778566
     83 C27        -3.6150    4.2020    0.0940 c3        1 MOL      0.442071
     84 C28        -4.4320    5.4070   -0.2990 c3        1 MOL     -0.315619
     85 O15        -4.2410    3.5240    1.1460 oh        1 MOL     -0.730880
     86 H35        -1.8760    4.8640   -1.5780 hn        1 MOL      0.254643
     87 H36        -2.3710    5.2200    1.3190 h1        1 MOL      0.006045
     88 H37        -3.4790    3.4600   -0.6920 h1        1 MOL     -0.057105
     89 H38        -5.1300    3.3100    0.8600 ho        1 MOL      0.417454
     90 H39        -5.3470    5.1050   -0.8240 hc        1 MOL      0.085656
     91 H40        -4.8030    5.9810    0.5490 hc        1 MOL      0.085656
     92 H41        -3.9000    6.1120   -0.9330 hc        1 MOL      0.085656
     93 N9         -1.4960    3.2380    2.2730 n         1 MOL     -0.583936
     94 C29        -0.8810    2.2050    3.0980 c3        1 MOL     -0.060378
     95 C30        -1.3030    0.7440    2.7060 c         1 MOL      0.373069
     96 O16        -0.7500    0.1920    1.6820 o         1 MOL     -0.481901
     97 C31         0.6690    2.3370    2.9330 c3        1 MOL      0.024808
     98 C32         1.0990    3.7290    3.5120 c3        1 MOL     -0.047897
     99 C33         1.5160    1.3200    3.6650 c3        1 MOL     -0.412318
    100 C34         2.3720    4.1050    2.7960 c3        1 MOL     -0.008934
    101 H42        -2.0800    3.8260    2.8390 hn        1 MOL      0.334818
    102 H43        -1.1610    2.3880    4.1330 h1        1 MOL      0.084086
    103 H44         0.9490    2.3120    1.8760 hc        1 MOL      0.136829
    104 H45         1.3270    3.6740    4.5820 hc        1 MOL      0.012825
    105 H46         0.3810    4.4670    3.1520 hc        1 MOL      0.012825
    106 H47         1.1860    1.3720    4.7070 hc        1 MOL      0.112783
    107 H48         1.2080    0.2830    3.5090 hc        1 MOL      0.112783
    108 H49         2.5890    1.4330    3.4660 hc        1 MOL      0.112783
    109 H50         2.7270    5.0810    3.1270 hc        1 MOL      0.004144
    110 H51         3.2090    3.4510    3.0430 hc        1 MOL      0.004144
    111 H52         2.1770    4.1600    1.7250 hc        1 MOL      0.004144
    112 N10        -2.2020    0.1460    3.4930 n         1 MOL     -0.217176
    113 C35        -2.7170   -1.2510    3.2460 c3        1 MOL     -0.045097
    114 C36        -4.0720   -1.2420    2.4950 c         1 MOL      0.560609
    115 O17        -4.5590   -2.2880    2.0570 o         1 MOL     -0.502006
    116 C37        -2.8520   -2.0410    4.6290 c3        1 MOL      0.318044
    117 C38        -4.0950   -1.6680    5.3860 c3        1 MOL     -0.267145
    118 O18        -1.7100   -1.7310    5.5100 oh        1 MOL     -0.589027
    119 H53        -2.5700    0.6240    4.2980 hn        1 MOL      0.249680
    120 H54        -1.9950   -1.7180    2.5770 h1        1 MOL      0.062311
    121 H55        -2.9360   -3.1130    4.4420 h1        1 MOL      0.036533
    122 H56        -1.0610   -2.3660    5.1890 ho        1 MOL      0.372662
    123 H57        -4.3190   -0.6060    5.3160 hc        1 MOL      0.071122
    124 H58        -4.8790   -2.1540    4.8000 hc        1 MOL      0.071122
    125 H59        -4.0220   -1.9250    6.4380 hc        1 MOL      0.071122
    126 N11        -4.7820   -0.1030    2.4720 n         1 MOL     -0.396791
    127 C39        -6.2160   -0.1030    2.3150 c3        1 MOL     -0.166324
    128 C40        -6.6280   -0.4350    0.9010 c         1 MOL      0.589778
    129 O19        -6.1970    0.3190    0.0140 o         1 MOL     -0.486571
    130 C41        -6.8060    1.2750    2.7680 c3        1 MOL      0.327540
    131 C42        -8.2980    1.4240    2.4220 c3        1 MOL     -0.306704
    132 O20        -6.8000    1.3130    4.2090 oh        1 MOL     -0.559877
    133 H60        -4.2160    0.6640    2.8150 hn        1 MOL      0.227117
    134 H61        -6.6480   -0.8840    2.9350 h1        1 MOL      0.105927
    135 H62        -6.2400    2.0560    2.2720 h1        1 MOL      0.027255
    136 H63        -5.8670    1.4670    4.3940 ho        1 MOL      0.347302
    137 H64        -8.6980    0.4600    2.7510 hc        1 MOL      0.087898
    138 H65        -8.7170    2.2710    2.9570 hc        1 MOL      0.087898
    139 H66        -8.4280    1.6320    1.3580 hc        1 MOL      0.087898
    140 N12        -7.2460   -1.5910    0.6960 n         1 MOL     -0.519838
    141 C43        -7.4630   -2.2440   -0.5880 c3        1 MOL      0.187360
    142 C44        -6.1610   -2.2310   -1.4520 c         1 MOL      0.493643
    143 O21        -6.1840   -1.7370   -2.5460 o         1 MOL     -0.471673
    144 C45        -8.6110   -1.4440   -1.3810 c3        1 MOL     -0.315681
    145 C46       -10.0230   -1.6680   -0.7420 c3        1 MOL      0.028337
    146 C47       -11.0720   -1.0570   -1.7150 c3        1 MOL      0.028941
    147 C48       -12.4600   -1.4130   -1.1660 c3        1 MOL      0.039852
    148 N13       -13.5200   -1.1900   -2.1440 n4        1 MOL     -0.170168
    149 H67        -7.5120   -2.0900    1.5380 hn        1 MOL      0.292412
    150 H68        -7.7620   -3.2850   -0.4590 h1        1 MOL      0.057672
    151 H69        -8.5280   -1.8260   -2.4050 hc        1 MOL      0.108629
    152 H70        -8.3000   -0.3970   -1.3040 hc        1 MOL      0.108629
    153 H71       -10.2880   -1.1490    0.1810 hc        1 MOL      0.011106
    154 H72       -10.2400   -2.7370   -0.5990 hc        1 MOL      0.011106
    155 H73       -10.9080   -1.5220   -2.6900 hc        1 MOL      0.031071
    156 H74       -11.0430    0.0170   -1.9000 hc        1 MOL      0.031071
    157 H75       -12.7610   -0.8340   -0.2850 hx        1 MOL      0.055605
    158 H76       -12.4480   -2.4770   -0.9120 hx        1 MOL      0.055605
    159 H77       -13.4850   -1.8110   -2.9310 hn        1 MOL      0.200566
    160 H78       -14.4110   -1.4510   -1.7450 hn        1 MOL      0.200566
    161 H79       -13.5620   -0.2570   -2.5260 hn        1 MOL      0.200566
    162 N14        -4.9960   -2.7170   -0.8740 n         1 MOL     -0.611840
    163 C49        -3.6580   -2.6690   -1.5060 c3        1 MOL      0.548080
    164 C50        -2.4590   -2.4300   -0.5500 c         1 MOL      0.243790
    165 O22        -2.0240   -1.2990   -0.4360 o         1 MOL     -0.464357
    166 C51        -3.5010   -3.9620   -2.4160 c3        1 MOL     -0.367748
    167 C52        -3.9700   -3.6670   -3.9020 c3        1 MOL     -0.132807
    168 C53        -3.7780   -4.8180   -4.8670 c         1 MOL      0.691267
    169 O23        -2.7990   -4.7610   -5.6110 o         1 MOL     -0.633653
    170 O24        -4.5150   -5.8410   -4.7700 o         1 MOL     -0.633653
    171 H80        -5.0520   -2.9950    0.0910 hn        1 MOL      0.299049
    172 H81        -3.6020   -1.8250   -2.1960 h1        1 MOL      0.004196
    173 H82        -4.0000   -4.8600   -2.0310 hc        1 MOL      0.139044
    174 H83        -2.4950   -4.3520   -2.4760 hc        1 MOL      0.139044
    175 H84        -3.4360   -2.7970   -4.2780 hc        1 MOL      0.023917
    176 H85        -5.0030   -3.3350   -4.0080 hc        1 MOL      0.023917
    177 N15        -1.9410   -3.4590    0.1870 n         1 MOL     -0.540446
    178 C54        -2.4410   -4.8520    0.4000 c3        1 MOL      0.091177
    179 H86        -1.6620   -5.5630    0.1280 h1        1 MOL      0.017667
    180 H87        -2.7060   -4.9870    1.4480 h1        1 MOL      0.017667
    181 H88        -3.3210   -5.0210   -0.2220 h1        1 MOL      0.017667
    182 H89        -1.0710   -3.1920    0.6200 hn        1 MOL      0.477804
    183 Ca1        -0.1340    0.3200   -1.0350 Ca        1 MOL      1.779018
    184 O25         1.8710   -0.4770   -2.6790 oh        1 MOL     -0.891906
    185 H90         2.7600   -0.4980   -2.3220 ho        1 MOL      0.428047
    186 H91         1.8930    0.2040   -3.3590 ho        1 MOL      0.428047
    187 O26        -2.4480    1.3110   -1.9230 oh        1 MOL     -0.891906
    188 H92        -3.1330    0.9380   -2.4740 ho        1 MOL      0.428047
    189 H93        -2.3610    2.2110   -2.2300 ho        1 MOL      0.428047
    190 O27        -0.7390   -1.0850   -3.2450 oh        1 MOL     -0.891906
    191 H94        -0.6750   -1.9910   -3.5430 ho        1 MOL      0.428047
    192 H95        -0.9660   -0.5810   -4.0240 ho        1 MOL      0.428047
@<TRIPOS>BOND
     1    1    2 1   
     2    1    4 1   
     3    1    5 1   
     4    1    6 1   
     5    2    3 2   
     6    2    7 1   
     7    7    8 1   
     8    7   15 1   
     9    8    9 1   
    10    8   11 1   
    11    8   16 1   
    12    9   10 2   
    13    9   19 1   
    14   11   12 1   
    15   11   17 1   
    16   11   18 1   
    17   12   13 1   
    18   12   14 1   
    19   19   20 1   
    20   19   28 1   
    21   20   21 1   
    22   20   23 1   
    23   20   29 1   
    24   21   22 2   
    25   21   41 1   
    26   23   24 1   
    27   23   30 1   
    28   23   31 1   
    29   24   25 1   
    30   24   32 1   
    31   24   33 1   
    32   25   26 1   
    33   25   34 1   
    34   25   35 1   
    35   26   27 1   
    36   26   36 1   
    37   26   37 1   
    38   27   38 1   
    39   27   39 1   
    40   27   40 1   
    41   41   42 1   
    42   41   49 1   
    43   42   43 1   
    44   42   45 1   
    45   42   50 1   
    46   43   44 2   
    47   43   53 1   
    48   45   46 1   
    49   45   51 1   
    50   45   52 1   
    51   46   47 1   
    52   46   48 1   
    53   53   54 1   
    54   53   57 1   
    55   54   55 1   
    56   54   58 1   
    57   54   59 1   
    58   55   56 2   
    59   55   60 1   
    60   60   61 1   
    61   60   68 1   
    62   61   62 1   
    63   61   64 1   
    64   61   69 1   
    65   62   63 2   
    66   62   72 1   
    67   64   65 1   
    68   64   70 1   
    69   64   71 1   
    70   65   66 1   
    71   65   67 1   
    72   72   73 1   
    73   72   76 1   
    74   73   74 1   
    75   73   77 1   
    76   73   78 1   
    77   74   75 2   
    78   74   79 1   
    79   79   80 1   
    80   79   86 1   
    81   80   81 1   
    82   80   83 1   
    83   80   87 1   
    84   81   82 2   
    85   81   93 1   
    86   83   84 1   
    87   83   85 1   
    88   83   88 1   
    89   84   90 1   
    90   84   91 1   
    91   84   92 1   
    92   85   89 1   
    93   93   94 1   
    94   93  101 1   
    95   94   95 1   
    96   94   97 1   
    97   94  102 1   
    98   95   96 2   
    99   95  112 1   
   100   97   98 1   
   101   97   99 1   
   102   97  103 1   
   103   98  100 1   
   104   98  104 1   
   105   98  105 1   
   106   99  106 1   
   107   99  107 1   
   108   99  108 1   
   109  100  109 1   
   110  100  110 1   
   111  100  111 1   
   112  112  113 1   
   113  112  119 1   
   114  113  114 1   
   115  113  116 1   
   116  113  120 1   
   117  114  115 2   
   118  114  126 1   
   119  116  117 1   
   120  116  118 1   
   121  116  121 1   
   122  117  123 1   
   123  117  124 1   
   124  117  125 1   
   125  118  122 1   
   126  126  127 1   
   127  126  133 1   
   128  127  128 1   
   129  127  130 1   
   130  127  134 1   
   131  128  129 2   
   132  128  140 1   
   133  130  131 1   
   134  130  132 1   
   135  130  135 1   
   136  131  137 1   
   137  131  138 1   
   138  131  139 1   
   139  132  136 1   
   140  140  141 1   
   141  140  149 1   
   142  141  142 1   
   143  141  144 1   
   144  141  150 1   
   145  142  143 2   
   146  142  162 1   
   147  144  145 1   
   148  144  151 1   
   149  144  152 1   
   150  145  146 1   
   151  145  153 1   
   152  145  154 1   
   153  146  147 1   
   154  146  155 1   
   155  146  156 1   
   156  147  148 1   
   157  147  157 1   
   158  147  158 1   
   159  148  159 1   
   160  148  160 1   
   161  148  161 1   
   162  162  163 1   
   163  162  171 1   
   164  163  164 1   
   165  163  166 1   
   166  163  172 1   
   167  164  165 2   
   168  164  177 1   
   169  166  167 1   
   170  166  173 1   
   171  166  174 1   
   172  167  168 1   
   173  167  175 1   
   174  167  176 1   
   175  168  169 1   
   176  168  170 1   
   177  177  178 1   
   178  177  182 1   
   179  178  179 1   
   180  178  180 1   
   181  178  181 1   
   182  184  185 1   
   183  184  186 1   
   184  187  188 1   
   185  187  189 1   
   186  190  191 1   
   187  190  192 1   
@<TRIPOS>SUBSTRUCTURE
     1 MOL         1 TEMP              0 ****  ****    0 ROOT
