@<TRIPOS>MOLECULE
MOL
  181   177     1     0     0
SMALL
resp


@<TRIPOS>ATOM
      1 C1         10.9390   -3.7430    5.0360 c3        1 MOL     -0.448658
      2 C2         10.1320   -3.7130    3.6830 c         1 MOL      0.765877
      3 O1          9.1090   -4.3590    3.5410 o         1 MOL     -0.577875
      4 H1         11.6970   -4.5240    4.9880 hc        1 MOL      0.119727
      5 H2         11.4200   -2.7790    5.1930 hc        1 MOL      0.119727
      6 H3         10.2570   -3.9500    5.8610 hc        1 MOL      0.119727
      7 N1         10.4930   -2.8130    2.7670 n         1 MOL     -0.603882
      8 C3         10.9940   -1.4300    3.0850 c3        1 MOL      0.010683
      9 C4         11.6790   -0.7280    1.9040 c         1 MOL      0.716635
     10 O2         12.2650    0.3340    2.1080 o         1 MOL     -0.573221
     11 C5          9.6700   -0.6000    3.4730 c3        1 MOL     -0.366982
     12 C6          8.5490   -0.8440    2.4990 c         1 MOL      0.852900
     13 O3          7.3590   -0.9560    2.8700 o         1 MOL     -0.777221
     14 O4          8.7800   -0.9130    1.2620 o         1 MOL     -0.777221
     15 H4         10.1100   -2.9040    1.8330 hn        1 MOL      0.266691
     16 H5         11.7440   -1.4960    3.8720 h1        1 MOL      0.073530
     17 H6          9.8420    0.4800    3.4460 hc        1 MOL      0.115955
     18 H7          9.3600   -0.9270    4.4700 hc        1 MOL      0.115955
     19 N2         11.6390   -1.3040    0.6500 n         1 MOL     -0.728186
     20 C7         12.3110   -0.7970   -0.5480 c3        1 MOL      0.325067
     21 C8         11.4020   -0.3840   -1.6400 c         1 MOL      0.391780
     22 O5         11.8520    0.0560   -2.6910 o         1 MOL     -0.555736
     23 C9         13.2440   -1.8940   -0.9610 c3        1 MOL     -0.130350
     24 H8         11.0020   -2.0610    0.4720 hn        1 MOL      0.366335
     25 H9         12.9100    0.0610   -0.2690 h1        1 MOL      0.049359
     26 H10        13.9590   -2.1260   -0.1710 hc        1 MOL      0.036747
     27 H11        12.7320   -2.8130   -1.2440 hc        1 MOL      0.036747
     28 H12        13.9440   -1.5580   -1.7170 hc        1 MOL      0.036747
     29 N3         10.0470   -0.2980   -1.4450 n         1 MOL     -0.166144
     30 C10         9.0470    0.1870   -2.4610 c3        1 MOL     -0.259396
     31 C11         7.7560    0.9620   -1.9530 c         1 MOL      0.787759
     32 O6          6.9630    0.3840   -1.2370 o         1 MOL     -0.577518
     33 C12         8.5900   -1.0010   -3.2500 c3        1 MOL     -0.104123
     34 C13         8.2170   -2.2970   -2.6830 c         1 MOL      0.710198
     35 O7          8.1590   -2.4500   -1.4230 o         1 MOL     -0.713693
     36 O8          7.9840   -3.2610   -3.4340 o         1 MOL     -0.713693
     37 H13         9.7020   -0.4980   -0.5120 hn        1 MOL      0.155735
     38 H14         9.5100    0.8890   -3.1560 h1        1 MOL      0.108649
     39 H15         9.3820   -1.1510   -3.9910 hc        1 MOL      0.046129
     40 H16         7.6620   -0.7040   -3.7480 hc        1 MOL      0.046129
     41 N4          7.7310    2.2880   -2.0760 n         1 MOL     -0.656097
     42 C14         6.6900    3.1430   -1.5550 c3        1 MOL      0.257349
     43 C15         5.3280    2.7260   -2.1040 c         1 MOL      0.367056
     44 O9          5.2340    2.2800   -3.2510 o         1 MOL     -0.480893
     45 H17         8.4770    2.8190   -2.4880 hn        1 MOL      0.339636
     46 H18         6.8580    4.2100   -1.6500 h1        1 MOL      0.016378
     47 H19         6.7290    3.0070   -0.4760 h1        1 MOL      0.016378
     48 N5          4.2300    3.0120   -1.4440 n         1 MOL     -0.259031
     49 C16         2.8950    2.5440   -1.6530 c3        1 MOL     -0.176519
     50 C17         1.8160    3.5870   -1.1970 c         1 MOL      0.713911
     51 O10         0.7070    3.5830   -1.7560 o         1 MOL     -0.480815
     52 C18         2.7970    1.1670   -0.8750 c3        1 MOL     -0.314600
     53 C19         3.6160    0.0410   -1.4670 c         1 MOL      0.791760
     54 N6          3.3560   -0.2690   -2.7240 n         1 MOL     -0.801938
     55 O11         4.3290   -0.7050   -0.8030 o         1 MOL     -0.666341
     56 H20         4.3850    3.5680   -0.6170 hn        1 MOL      0.117115
     57 H21         2.7320    2.4070   -2.7180 h1        1 MOL      0.146630
     58 H22         1.7720    0.8450   -1.0250 hc        1 MOL      0.109988
     59 H23         2.9830    1.1640    0.1950 hc        1 MOL      0.109988
     60 H24         3.0550    0.4560   -3.3660 hn        1 MOL      0.385417
     61 H25         3.6980   -1.1080   -3.1530 hn        1 MOL      0.385417
     62 N7          2.1660    4.4590   -0.2410 n         1 MOL     -0.569186
     63 C20         1.1920    5.3910    0.3220 c3        1 MOL      0.051776
     64 C21         0.4590    6.3320   -0.6540 c         1 MOL      0.547909
     65 O12         1.0120    6.7080   -1.6920 o         1 MOL     -0.532341
     66 H26         3.0820    4.3970    0.1750 hn        1 MOL      0.358032
     67 H27         1.7740    6.0710    0.9470 h1        1 MOL      0.037425
     68 H28         0.5240    4.8350    0.9640 h1        1 MOL      0.037425
     69 N8         -0.8140    6.7140   -0.4590 n         1 MOL     -0.509462
     70 C22        -1.7590    6.2230    0.5200 c3        1 MOL      0.235742
     71 C23        -2.4120    4.8740    0.2170 c         1 MOL      0.470372
     72 O13        -2.9570    4.7070   -0.9170 o         1 MOL     -0.528989
     73 C24        -3.0510    7.0600    0.7120 c3        1 MOL      0.100354
     74 C25        -4.0610    6.6780    1.8170 c3        1 MOL     -0.120757
     75 O14        -2.5480    8.3580    1.2050 oh        1 MOL     -0.653337
     76 H29        -1.2590    7.4360   -1.0070 hn        1 MOL      0.321417
     77 H30        -1.2370    6.1440    1.4740 h1        1 MOL      0.021070
     78 H31        -3.6120    7.1000   -0.2240 h1        1 MOL      0.077039
     79 H32        -3.2930    8.9620    1.1860 ho        1 MOL      0.392957
     80 H33        -3.5510    6.4350    2.7460 hc        1 MOL      0.055323
     81 H34        -4.7310    7.4720    2.1270 hc        1 MOL      0.055323
     82 H35        -4.8040    5.9200    1.5570 hc        1 MOL      0.055323
     83 N9         -2.5940    4.0330    1.2590 n         1 MOL     -0.518697
     84 C26        -3.4900    2.8450    1.0550 c3        1 MOL      0.051287
     85 C27        -4.5470    2.9120    2.1640 c         1 MOL      0.533887
     86 O15        -4.2760    3.3510    3.2950 o         1 MOL     -0.592562
     87 C28        -2.6680    1.5730    1.1540 c3        1 MOL      0.202472
     88 C29        -1.7770    1.3280   -0.0570 c3        1 MOL     -0.067597
     89 C30        -3.5870    0.3180    1.4090 c3        1 MOL     -0.339841
     90 C31        -1.0130   -0.0010   -0.2680 c3        1 MOL     -0.090745
     91 H36        -2.3640    4.3050    2.2070 hn        1 MOL      0.277365
     92 H37        -3.9610    2.8470    0.0660 h1        1 MOL      0.103724
     93 H38        -1.9830    1.6780    2.0010 hc        1 MOL     -0.053838
     94 H39        -0.9660    2.0540    0.0270 hc        1 MOL      0.046993
     95 H40        -2.3780    1.5660   -0.9350 hc        1 MOL      0.046993
     96 H41        -4.2150    0.2310    0.5150 hc        1 MOL      0.078229
     97 H42        -3.0090   -0.5880    1.5830 hc        1 MOL      0.078229
     98 H43        -4.2660    0.5060    2.2540 hc        1 MOL      0.078229
     99 H44        -0.2790   -0.0260    0.5340 hc        1 MOL      0.022016
    100 H45        -1.6760   -0.8580   -0.1870 hc        1 MOL      0.022016
    101 H46        -0.4850    0.0670   -1.2210 hc        1 MOL      0.022016
    102 N10        -5.8140    2.5600    1.9140 n         1 MOL     -0.460346
    103 C32        -6.4910    2.2740    0.6570 c3        1 MOL      0.197499
    104 C33        -7.4870    1.0960    0.9320 c         1 MOL      0.457134
    105 O16        -7.8250    0.7860    2.0770 o         1 MOL     -0.495868
    106 C34        -7.1940    3.5330    0.0330 c3        1 MOL     -0.202385
    107 C35        -8.1940    4.2200    0.9280 c         1 MOL      0.797006
    108 O17        -9.3220    3.6840    1.0460 o         1 MOL     -0.742889
    109 O18        -7.9260    5.2730    1.5260 o         1 MOL     -0.742889
    110 H47        -6.3960    2.6240    2.7350 hn        1 MOL      0.321844
    111 H48        -5.7540    1.9240   -0.0590 h1        1 MOL      0.045606
    112 H49        -7.7030    3.3040   -0.8960 hc        1 MOL      0.014511
    113 H50        -6.4500    4.2680   -0.2890 hc        1 MOL      0.014511
    114 N11        -8.0300    0.6230   -0.2180 n         1 MOL     -0.638436
    115 C36        -9.0670   -0.4200   -0.2680 c3        1 MOL      0.576044
    116 C37        -9.1120   -1.2200   -1.5340 c         1 MOL      0.234580
    117 O19        -8.8590   -0.5770   -2.5580 o         1 MOL     -0.490052
    118 C38       -10.3890    0.1230    0.1630 c3        1 MOL     -0.236852
    119 C39       -11.3440   -0.8770    0.7450 ca        1 MOL      0.102434
    120 C40       -11.0490   -1.2850    2.0400 ca        1 MOL     -0.126716
    121 C41       -12.3680   -1.5470    0.0130 ca        1 MOL     -0.126716
    122 C42       -11.8170   -2.2490    2.7210 ca        1 MOL     -0.179743
    123 C43       -13.2000   -2.4670    0.6880 ca        1 MOL     -0.179743
    124 C44       -12.9340   -2.8080    2.0570 ca        1 MOL     -0.082986
    125 H51        -7.7630    0.9520   -1.1330 hn        1 MOL      0.323665
    126 H52        -8.6250   -1.1270    0.4450 h1        1 MOL     -0.042481
    127 H53       -10.8470    0.6700   -0.6680 hc        1 MOL      0.080863
    128 H54       -10.1880    0.8250    0.9680 hc        1 MOL      0.080863
    129 H55       -10.2060   -0.9010    2.6020 ha        1 MOL      0.117134
    130 H56       -12.5570   -1.2430   -1.0090 ha        1 MOL      0.117134
    131 H57       -11.5590   -2.5600    3.7190 ha        1 MOL      0.124523
    132 H58       -13.9780   -3.0380    0.2160 ha        1 MOL      0.124523
    133 H59       -13.6470   -3.4560    2.5300 ha        1 MOL      0.078354
    134 N12        -9.4360   -2.5060   -1.6180 n         1 MOL      0.082801
    135 C45        -9.5560   -3.4450   -0.5040 c3        1 MOL     -0.391263
    136 C46        -8.2130   -3.8350    0.0830 c         1 MOL      0.787413
    137 O20        -8.0950   -4.1140    1.3030 o         1 MOL     -0.601816
    138 C47       -10.2960   -4.6110   -1.1440 c3        1 MOL      0.123995
    139 C48        -9.7250   -4.6720   -2.5700 c3        1 MOL      0.149508
    140 C49        -9.5490   -3.1860   -2.8760 c3        1 MOL     -0.367004
    141 H60       -10.0540   -3.0930    0.4020 h1        1 MOL      0.137282
    142 H61       -10.1470   -5.5530   -0.6200 hc        1 MOL     -0.025723
    143 H62       -11.3470   -4.3780   -1.3190 hc        1 MOL     -0.025723
    144 H63        -8.8330   -5.2800   -2.4350 hc        1 MOL     -0.009841
    145 H64       -10.3720   -5.2220   -3.2510 hc        1 MOL     -0.009841
    146 H65        -8.6000   -3.0810   -3.4040 h1        1 MOL      0.126742
    147 H66       -10.3070   -2.6830   -3.4760 h1        1 MOL      0.126742
    148 N13        -7.1250   -3.7430   -0.6910 n         1 MOL     -0.509439
    149 C50        -5.8580   -4.2600   -0.3000 c3        1 MOL      0.088875
    150 C51        -5.8790   -5.8140   -0.1480 c         1 MOL      0.437772
    151 O21        -6.0120   -6.5870   -1.1190 o         1 MOL     -0.585663
    152 C52        -4.8330   -3.9230   -1.3880 c3        1 MOL     -0.159605
    153 C53        -4.4740   -2.4240   -1.3480 c3        1 MOL     -0.064099
    154 C54        -4.0130   -1.9900   -2.7670 c         1 MOL      0.777258
    155 O22        -3.0740   -2.4870   -3.3680 o         1 MOL     -0.749100
    156 O23        -4.7710   -1.1260   -3.2180 o         1 MOL     -0.749100
    157 H67        -7.2610   -3.5220   -1.6640 hn        1 MOL      0.362502
    158 H68        -5.5130   -3.7830    0.6190 h1        1 MOL      0.068605
    159 H69        -5.1500   -4.3640   -2.3310 hc        1 MOL      0.048735
    160 H70        -3.9740   -4.5430   -1.1490 hc        1 MOL      0.048735
    161 H71        -3.6060   -2.2120   -0.7210 hc        1 MOL     -0.017198
    162 H72        -5.3390   -1.8020   -1.1260 hc        1 MOL     -0.017198
    163 N14        -5.7580   -6.4430    0.9820 n         1 MOL     -0.282859
    164 C55        -5.8760   -6.0780    2.4220 c3        1 MOL     -0.171200
    165 H73        -6.7080   -5.3870    2.5540 h1        1 MOL      0.085462
    166 H74        -6.0540   -6.9780    3.0120 h1        1 MOL      0.085462
    167 H75        -4.9530   -5.6020    2.7530 h1        1 MOL      0.085462
    168 H76        -5.5860   -7.4290    0.8310 hn        1 MOL      0.246868
    169 Ca1         6.4320   -1.6450    0.3530 Ca        1 MOL      1.771026
    170 O24         5.3840    1.2930    0.9870 oh        1 MOL     -0.824381
    171 H77         4.7650    1.8540    1.4530 ho        1 MOL      0.413445
    172 H78         6.2400    1.6450    1.2080 ho        1 MOL      0.413445
    173 O25         4.8640   -3.5300   -0.9970 oh        1 MOL     -0.824381
    174 H79         4.2660   -4.2030   -0.6680 ho        1 MOL      0.413445
    175 H80         4.5910   -3.3770   -1.9050 ho        1 MOL      0.413445
    176 O26         4.3640   -1.8950    2.0190 oh        1 MOL     -0.824381
    177 H81         4.0180   -1.1680    2.5370 ho        1 MOL      0.413445
    178 H82         3.9380   -2.6720    2.3870 ho        1 MOL      0.413445
    179 O27         6.7100   -3.9830    1.1720 oh        1 MOL     -0.824381
    180 H83         7.2150   -4.7520    0.9020 ho        1 MOL      0.413445
    181 H84         6.3860   -4.2090    2.0440 ho        1 MOL      0.413445
@<TRIPOS>BOND
     1    1    2 1   
     2    1    4 1   
     3    1    5 1   
     4    1    6 1   
     5    2    3 2   
     6    2    7 1   
     7    7    8 1   
     8    7   15 1   
     9    8    9 1   
    10    8   11 1   
    11    8   16 1   
    12    9   10 2   
    13    9   19 1   
    14   11   12 1   
    15   11   17 1   
    16   11   18 1   
    17   12   13 1   
    18   12   14 1   
    19   19   20 1   
    20   19   24 1   
    21   20   21 1   
    22   20   23 1   
    23   20   25 1   
    24   21   22 2   
    25   21   29 1   
    26   23   26 1   
    27   23   27 1   
    28   23   28 1   
    29   29   30 1   
    30   29   37 1   
    31   30   31 1   
    32   30   33 1   
    33   30   38 1   
    34   31   32 2   
    35   31   41 1   
    36   33   34 1   
    37   33   39 1   
    38   33   40 1   
    39   34   35 1   
    40   34   36 1   
    41   41   42 1   
    42   41   45 1   
    43   42   43 1   
    44   42   46 1   
    45   42   47 1   
    46   43   44 2   
    47   43   48 1   
    48   48   49 1   
    49   48   56 1   
    50   49   50 1   
    51   49   52 1   
    52   49   57 1   
    53   50   51 2   
    54   50   62 1   
    55   52   53 1   
    56   52   58 1   
    57   52   59 1   
    58   53   54 1   
    59   53   55 2   
    60   54   60 1   
    61   54   61 1   
    62   62   63 1   
    63   62   66 1   
    64   63   64 1   
    65   63   67 1   
    66   63   68 1   
    67   64   65 2   
    68   64   69 1   
    69   69   70 1   
    70   69   76 1   
    71   70   71 1   
    72   70   73 1   
    73   70   77 1   
    74   71   72 2   
    75   71   83 1   
    76   73   74 1   
    77   73   75 1   
    78   73   78 1   
    79   74   80 1   
    80   74   81 1   
    81   74   82 1   
    82   75   79 1   
    83   83   84 1   
    84   83   91 1   
    85   84   85 1   
    86   84   87 1   
    87   84   92 1   
    88   85   86 2   
    89   85  102 1   
    90   87   88 1   
    91   87   89 1   
    92   87   93 1   
    93   88   90 1   
    94   88   94 1   
    95   88   95 1   
    96   89   96 1   
    97   89   97 1   
    98   89   98 1   
    99   90   99 1   
   100   90  100 1   
   101   90  101 1   
   102  102  103 1   
   103  102  110 1   
   104  103  104 1   
   105  103  106 1   
   106  103  111 1   
   107  104  105 2   
   108  104  114 1   
   109  106  107 1   
   110  106  112 1   
   111  106  113 1   
   112  107  108 1   
   113  107  109 1   
   114  114  115 1   
   115  114  125 1   
   116  115  116 1   
   117  115  118 1   
   118  115  126 1   
   119  116  117 2   
   120  116  134 1   
   121  118  119 1   
   122  118  127 1   
   123  118  128 1   
   124  119  120 ar  
   125  119  121 ar  
   126  120  122 ar  
   127  120  129 1   
   128  121  123 ar  
   129  121  130 1   
   130  122  124 ar  
   131  122  131 1   
   132  123  124 ar  
   133  123  132 1   
   134  124  133 1   
   135  134  135 1   
   136  134  140 1   
   137  135  136 1   
   138  135  138 1   
   139  135  141 1   
   140  136  137 2   
   141  136  148 1   
   142  138  139 1   
   143  138  142 1   
   144  138  143 1   
   145  139  140 1   
   146  139  144 1   
   147  139  145 1   
   148  140  146 1   
   149  140  147 1   
   150  148  149 1   
   151  148  157 1   
   152  149  150 1   
   153  149  152 1   
   154  149  158 1   
   155  150  151 2   
   156  150  163 1   
   157  152  153 1   
   158  152  159 1   
   159  152  160 1   
   160  153  154 1   
   161  153  161 1   
   162  153  162 1   
   163  154  155 1   
   164  154  156 1   
   165  163  164 1   
   166  163  168 1   
   167  164  165 1   
   168  164  166 1   
   169  164  167 1   
   170  170  171 1   
   171  170  172 1   
   172  173  174 1   
   173  173  175 1   
   174  176  177 1   
   175  176  178 1   
   176  179  180 1   
   177  179  181 1   
@<TRIPOS>SUBSTRUCTURE
     1 MOL         1 TEMP              0 ****  ****    0 ROOT
