@<TRIPOS>MOLECULE
MOL
  192   187     1     0     0
SMALL
resp


@<TRIPOS>ATOM
      1 C1         -9.9460   -0.4650   -2.3130 c3        1 MOL     -0.452722
      2 C2         -8.5940   -0.6320   -1.5100 c         1 MOL      0.741801
      3 O1         -7.4820   -0.7270   -2.0270 o         1 MOL     -0.637953
      4 H1        -10.7380   -0.1570   -1.6290 hc        1 MOL      0.119991
      5 H2         -9.8190    0.2920   -3.0870 hc        1 MOL      0.119991
      6 H3        -10.2160   -1.4160   -2.7740 hc        1 MOL      0.119991
      7 N1         -8.7580   -0.7400   -0.1520 n         1 MOL     -0.739000
      8 C3         -7.6780   -0.4740    0.8320 c3        1 MOL      0.467842
      9 C4         -6.8460   -1.7160    1.1500 c         1 MOL      0.286946
     10 O2         -6.7880   -2.1680    2.3320 o         1 MOL     -0.442421
     11 C5         -8.2270    0.3700    1.9920 c3        1 MOL     -0.131346
     12 C6         -9.3730   -0.2880    2.8740 c         1 MOL      0.591516
     13 O3         -9.6080    0.1120    4.0790 o         1 MOL     -0.618289
     14 O4         -9.9830   -1.2410    2.3410 o         1 MOL     -0.618289
     15 H4         -9.6850   -0.7650    0.2260 hn        1 MOL      0.304890
     16 H5         -6.9790    0.2650    0.4310 h1        1 MOL     -0.027537
     17 H6         -8.5670    1.3450    1.6490 hc        1 MOL      0.024243
     18 H7         -7.4280    0.5490    2.7010 hc        1 MOL      0.024243
     19 N2         -6.5220   -2.4810    0.1090 n         1 MOL     -0.273049
     20 C7         -5.8820   -3.8520    0.1540 c3        1 MOL     -0.003513
     21 C8         -4.4140   -3.8800    0.6450 c         1 MOL      0.560667
     22 O5         -4.0750   -4.8280    1.3360 o         1 MOL     -0.553345
     23 C9         -6.0790   -4.5490   -1.1730 c3        1 MOL      0.049824
     24 C10        -7.5520   -4.5960   -1.6600 c3        1 MOL     -0.111778
     25 C11        -7.9630   -5.4470   -2.8770 c3        1 MOL      0.035795
     26 C12        -9.4660   -5.2440   -3.1900 c3        1 MOL      0.043689
     27 N3         -9.7860   -6.1630   -4.3020 n4        1 MOL     -0.176817
     28 H8         -6.7400   -2.0590   -0.7860 hn        1 MOL      0.228729
     29 H9         -6.4590   -4.4210    0.8860 h1        1 MOL      0.090592
     30 H10        -5.6180   -5.5270   -1.2840 hc        1 MOL      0.004279
     31 H11        -5.4980   -3.9560   -1.8810 hc        1 MOL      0.004279
     32 H12        -7.8870   -3.6070   -1.9530 hc        1 MOL      0.054213
     33 H13        -8.1310   -4.9520   -0.8070 hc        1 MOL      0.054213
     34 H14        -7.8740   -6.5070   -2.6450 hc        1 MOL      0.014906
     35 H15        -7.4140   -5.2270   -3.7920 hc        1 MOL      0.014906
     36 H16        -9.7540   -4.2460   -3.5210 hx        1 MOL      0.066534
     37 H17        -9.9560   -5.5610   -2.2610 hx        1 MOL      0.066534
     38 H18        -9.5130   -7.1270   -4.1540 hn        1 MOL      0.229378
     39 H19       -10.7920   -6.2590   -4.3950 hn        1 MOL      0.229378
     40 H20        -9.3980   -5.8550   -5.1740 hn        1 MOL      0.229378
     41 N4         -3.4490   -3.0280    0.2660 n         1 MOL     -0.602397
     42 C13        -3.5520   -1.8580   -0.7300 c3        1 MOL      0.344600
     43 C14        -3.8830   -0.5360   -0.0310 c         1 MOL      0.188591
     44 O6         -4.0400   -0.4860    1.2090 o         1 MOL     -0.400785
     45 C15        -2.2970   -1.6220   -1.5670 c3        1 MOL     -0.434771
     46 C16        -0.9170   -1.6870   -0.8510 c         1 MOL      0.812113
     47 O7         -0.6830   -0.8950    0.0410 o         1 MOL     -0.690805
     48 O8         -0.0440   -2.5650   -1.1270 o         1 MOL     -0.690805
     49 H21        -2.7080   -3.1070    0.9400 hn        1 MOL      0.396866
     50 H22        -4.3470   -2.0780   -1.4470 h1        1 MOL      0.056152
     51 H23        -2.3070   -0.6940   -2.1460 hc        1 MOL      0.091293
     52 H24        -2.3540   -2.3430   -2.3790 hc        1 MOL      0.091293
     53 N5         -4.1490    0.5070   -0.7690 n         1 MOL     -0.357556
     54 C17        -4.4780    1.8200   -0.1940 c3        1 MOL      0.129430
     55 C18        -3.2720    2.4520    0.5590 c         1 MOL      0.548376
     56 O9         -2.1850    1.8640    0.6050 o         1 MOL     -0.478673
     57 H25        -3.8830    0.5320   -1.7410 hn        1 MOL      0.271561
     58 H26        -5.3330    1.6620    0.4490 h1        1 MOL      0.007159
     59 H27        -4.6250    2.4850   -1.0440 h1        1 MOL      0.007159
     60 N6         -3.4610    3.7470    0.9000 n         1 MOL     -0.437379
     61 C19        -2.5750    4.7610    1.4500 c3        1 MOL      0.241896
     62 C20        -3.0850    6.1850    1.0010 c         1 MOL      0.463539
     63 O10        -4.2440    6.4080    0.6190 o         1 MOL     -0.528011
     64 C21        -2.3210    4.6030    2.9790 c3        1 MOL     -0.168986
     65 C22        -1.7750    3.2630    3.3580 c         1 MOL      0.617166
     66 O11        -2.4240    2.4770    4.0920 o         1 MOL     -0.649562
     67 O12        -0.6440    2.9690    2.8880 o         1 MOL     -0.649562
     68 H28        -4.4240    4.0260    0.8180 hn        1 MOL      0.240582
     69 H29        -1.6450    4.6720    0.8800 h1        1 MOL     -0.018450
     70 H30        -3.2440    4.8470    3.4990 hc        1 MOL      0.043228
     71 H31        -1.6330    5.3720    3.3420 hc        1 MOL      0.043228
     72 N7         -2.1840    7.1560    0.9100 n         1 MOL     -0.414782
     73 C23        -0.7720    7.2580    1.3840 c3        1 MOL     -0.023154
     74 C24         0.2810    6.6950    0.3650 c         1 MOL      0.691829
     75 O13         0.1510    6.8620   -0.8310 o         1 MOL     -0.587862
     76 H32        -2.5540    8.0650    0.6740 hn        1 MOL      0.315710
     77 H33        -0.6070    6.8470    2.3850 h1        1 MOL      0.046100
     78 H34        -0.4560    8.3030    1.3750 h1        1 MOL      0.046100
     79 N8          1.2220    5.9300    0.8090 n         1 MOL     -0.652190
     80 C25         2.1850    5.1720    0.0430 c3        1 MOL      0.344010
     81 C26         1.4920    3.9670   -0.5060 c         1 MOL      0.433559
     82 O14         0.6980    3.3220    0.1750 o         1 MOL     -0.655457
     83 C27         3.4310    4.8450    0.8180 c3        1 MOL      0.317051
     84 C28         4.1900    6.1040    1.3440 c3        1 MOL     -0.325033
     85 O15         4.3580    4.0910    0.0480 oh        1 MOL     -0.666734
     86 H35         1.3220    6.0060    1.8080 hn        1 MOL      0.291204
     87 H36         2.5560    5.7250   -0.8240 h1        1 MOL      0.024260
     88 H37         3.1600    4.1620    1.6310 h1        1 MOL      0.012705
     89 H38         4.9990    3.6980    0.6460 ho        1 MOL      0.425044
     90 H39         3.5540    6.6520    2.0360 hc        1 MOL      0.082268
     91 H40         5.0650    5.7660    1.8930 hc        1 MOL      0.082268
     92 H41         4.3040    6.8970    0.5970 hc        1 MOL      0.082268
     93 N9          1.7340    3.7530   -1.8490 n         1 MOL     -0.614219
     94 C29         1.1110    2.6320   -2.6280 c3        1 MOL      0.009589
     95 C30         1.6920    1.2950   -2.1760 c         1 MOL      0.641923
     96 O16         1.5560    0.8990   -0.9760 o         1 MOL     -0.494443
     97 C31        -0.4090    2.6910   -2.5550 c3        1 MOL      0.216563
     98 C32        -1.0340    4.1530   -2.5910 c3        1 MOL      0.044410
     99 C33        -0.8820    1.8210   -3.6690 c3        1 MOL     -0.486821
    100 C34        -2.4820    4.3420   -3.0640 c3        1 MOL     -0.304899
    101 H42         2.2810    4.4590   -2.3260 hn        1 MOL      0.347302
    102 H43         1.5120    2.8040   -3.6330 h1        1 MOL      0.065907
    103 H44        -0.7560    2.0990   -1.7050 hc        1 MOL     -0.006307
    104 H45        -0.3870    4.8100   -3.1690 hc        1 MOL      0.038229
    105 H46        -1.0030    4.5390   -1.5750 hc        1 MOL      0.038229
    106 H47        -0.4800    0.8290   -3.4800 hc        1 MOL      0.108039
    107 H48        -1.9450    1.7200   -3.4590 hc        1 MOL      0.108039
    108 H49        -0.6250    2.2960   -4.6160 hc        1 MOL      0.108039
    109 H50        -2.6740    3.9940   -4.0780 hc        1 MOL      0.084115
    110 H51        -3.1730    3.8470   -2.3880 hc        1 MOL      0.084115
    111 H52        -2.7940    5.3810   -2.9260 hc        1 MOL      0.084115
    112 N10         2.2160    0.5790   -3.1760 n         1 MOL     -0.446232
    113 C35         2.6880   -0.8460   -3.0480 c3        1 MOL      0.031607
    114 C36         4.2090   -1.0990   -3.2660 c         1 MOL      0.596863
    115 O17         4.6620   -2.2300   -3.2730 o         1 MOL     -0.597843
    116 C37         1.8180   -1.8570   -3.8840 c3        1 MOL      0.445371
    117 C38         1.9500   -1.7310   -5.3760 c3        1 MOL     -0.225275
    118 O18         0.4120   -1.8250   -3.6480 oh        1 MOL     -0.595531
    119 H53         2.3880    1.0580   -4.0470 hn        1 MOL      0.259028
    120 H54         2.4310   -1.1160   -2.0210 h1        1 MOL     -0.004933
    121 H55         2.0810   -2.8860   -3.6380 h1        1 MOL      0.000968
    122 H56         0.3350   -2.1050   -2.7340 ho        1 MOL      0.335771
    123 H57         2.9480   -1.3510   -5.5720 hc        1 MOL      0.038592
    124 H58         1.7920   -2.6760   -5.8840 hc        1 MOL      0.038592
    125 H59         1.2300   -1.0380   -5.8310 hc        1 MOL      0.038592
    126 N11         4.9980   -0.0420   -3.1750 n         1 MOL     -0.460671
    127 C39         6.4390   -0.2150   -3.1710 c3        1 MOL      0.123053
    128 C40         6.9930   -0.6120   -1.7480 c         1 MOL      0.423439
    129 O19         7.5130    0.1870   -0.9940 o         1 MOL     -0.492198
    130 C41         7.0840    1.1010   -3.5950 c3        1 MOL      0.733006
    131 C42         8.5370    0.9930   -3.8090 c3        1 MOL     -0.562589
    132 O20         6.4580    1.7830   -4.6250 oh        1 MOL     -0.676662
    133 H60         4.6080    0.8910   -3.1080 hn        1 MOL      0.217563
    134 H61         6.8620   -0.8950   -3.9100 h1        1 MOL      0.016595
    135 H62         7.0480    1.6900   -2.6820 h1        1 MOL     -0.123820
    136 H63         6.1500    2.5790   -4.1910 ho        1 MOL      0.378815
    137 H64         8.6240    0.2280   -4.5700 hc        1 MOL      0.127634
    138 H65         8.9110    1.9690   -4.1250 hc        1 MOL      0.127634
    139 H66         9.1400    0.7890   -2.9220 hc        1 MOL      0.127634
    140 N12         6.7560   -1.8730   -1.4230 n         1 MOL     -0.671646
    141 C43         6.7720   -2.3550   -0.0530 c3        1 MOL      0.471035
    142 C44         5.5920   -1.8850    0.8130 c         1 MOL      0.504478
    143 O21         5.1040   -0.7430    0.7360 o         1 MOL     -0.513661
    144 C45         8.0750   -2.1590    0.7020 c3        1 MOL     -0.872688
    145 C46         9.3410   -2.6600   -0.0690 c3        1 MOL      0.282400
    146 C47        10.5950   -2.5980    0.8680 c3        1 MOL      0.184054
    147 C48        11.7990   -3.2950    0.2800 c3        1 MOL     -0.008169
    148 N13        12.9260   -3.4690    1.2610 n4        1 MOL     -0.219804
    149 H67         6.3280   -2.4280   -2.1410 hn        1 MOL      0.372558
    150 H68         6.5400   -3.3950   -0.2970 h1        1 MOL      0.013625
    151 H69         7.9560   -2.6920    1.6490 hc        1 MOL      0.232351
    152 H70         8.2650   -1.1110    0.9360 hc        1 MOL      0.232351
    153 H71         9.5380   -2.0950   -0.9790 hc        1 MOL     -0.014828
    154 H72         9.1410   -3.6560   -0.4490 hc        1 MOL     -0.014828
    155 H73        10.2940   -3.2330    1.7080 hc        1 MOL     -0.025621
    156 H74        10.9110   -1.5920    1.1240 hc        1 MOL     -0.025621
    157 H75        12.0850   -2.6680   -0.5610 hx        1 MOL      0.052466
    158 H76        11.5560   -4.3130   -0.0220 hx        1 MOL      0.052466
    159 H77        13.6010   -4.1470    0.9270 hn        1 MOL      0.248785
    160 H78        13.3690   -2.5710    1.4240 hn        1 MOL      0.248785
    161 H79        12.5540   -3.7730    2.1490 hn        1 MOL      0.248785
    162 N14         5.1120   -2.7160    1.7150 n         1 MOL     -0.459200
    163 C49         3.9620   -2.4590    2.5410 c3        1 MOL      0.244972
    164 C50         2.6490   -2.2170    1.7250 c         1 MOL      0.355704
    165 O22         2.0140   -1.2070    2.0700 o         1 MOL     -0.623200
    166 C51         3.8090   -3.6960    3.4410 c3        1 MOL      0.054034
    167 C52         4.7020   -3.6590    4.6490 c3        1 MOL     -0.049464
    168 C53         4.4190   -4.8200    5.6160 c         1 MOL      0.650448
    169 O23         3.5450   -4.6660    6.4990 o         1 MOL     -0.646868
    170 O24         5.1350   -5.8310    5.3700 o         1 MOL     -0.646868
    171 H80         5.6240   -3.5770    1.8310 hn        1 MOL      0.256022
    172 H81         4.2630   -1.5760    3.0920 h1        1 MOL      0.027580
    173 H82         4.0030   -4.6090    2.8600 hc        1 MOL      0.008589
    174 H83         2.8380   -3.7580    3.9070 hc        1 MOL      0.008589
    175 H84         4.5460   -2.7560    5.2470 hc        1 MOL     -0.052331
    176 H85         5.7420   -3.7130    4.3100 hc        1 MOL     -0.052331
    177 N15         2.2890   -2.8960    0.6110 n         1 MOL     -0.191606
    178 C54         2.8090   -4.2220    0.2590 c3        1 MOL      0.025869
    179 H86         3.8850   -4.1590    0.0990 h1        1 MOL      0.016602
    180 H87         2.6030   -4.9210    1.0700 h1        1 MOL      0.016602
    181 H88         2.3270   -4.5720   -0.6540 h1        1 MOL      0.016602
    182 H89         1.4680   -2.5340    0.1570 hn        1 MOL      0.238343
    183 Ca1         0.3600    0.9650    1.4700 Ca        1 MOL      1.795571
    184 O25         1.2530    0.9560    4.1450 oh        1 MOL     -0.841869
    185 H90         0.9020    0.3590    4.7990 ho        1 MOL      0.409901
    186 H91         2.1310    1.1710    4.4550 ho        1 MOL      0.409901
    187 O26        -1.5310    0.0000    2.9030 oh        1 MOL     -0.841869
    188 H92        -1.8210    0.7710    3.4020 ho        1 MOL      0.409901
    189 H93        -2.1330   -0.7010    3.1680 ho        1 MOL      0.409901
    190 O27         2.9400    1.4940    1.9260 oh        1 MOL     -0.841869
    191 H94         3.3400    1.8840    2.7000 ho        1 MOL      0.409901
    192 H95         3.6880    1.1390    1.4390 ho        1 MOL      0.409901
@<TRIPOS>BOND
     1    1    2 1   
     2    1    4 1   
     3    1    5 1   
     4    1    6 1   
     5    2    3 2   
     6    2    7 1   
     7    7    8 1   
     8    7   15 1   
     9    8    9 1   
    10    8   11 1   
    11    8   16 1   
    12    9   10 2   
    13    9   19 1   
    14   11   12 1   
    15   11   17 1   
    16   11   18 1   
    17   12   13 1   
    18   12   14 1   
    19   19   20 1   
    20   19   28 1   
    21   20   21 1   
    22   20   23 1   
    23   20   29 1   
    24   21   22 2   
    25   21   41 1   
    26   23   24 1   
    27   23   30 1   
    28   23   31 1   
    29   24   25 1   
    30   24   32 1   
    31   24   33 1   
    32   25   26 1   
    33   25   34 1   
    34   25   35 1   
    35   26   27 1   
    36   26   36 1   
    37   26   37 1   
    38   27   38 1   
    39   27   39 1   
    40   27   40 1   
    41   41   42 1   
    42   41   49 1   
    43   42   43 1   
    44   42   45 1   
    45   42   50 1   
    46   43   44 2   
    47   43   53 1   
    48   45   46 1   
    49   45   51 1   
    50   45   52 1   
    51   46   47 1   
    52   46   48 1   
    53   53   54 1   
    54   53   57 1   
    55   54   55 1   
    56   54   58 1   
    57   54   59 1   
    58   55   56 2   
    59   55   60 1   
    60   60   61 1   
    61   60   68 1   
    62   61   62 1   
    63   61   64 1   
    64   61   69 1   
    65   62   63 2   
    66   62   72 1   
    67   64   65 1   
    68   64   70 1   
    69   64   71 1   
    70   65   66 1   
    71   65   67 1   
    72   72   73 1   
    73   72   76 1   
    74   73   74 1   
    75   73   77 1   
    76   73   78 1   
    77   74   75 2   
    78   74   79 1   
    79   79   80 1   
    80   79   86 1   
    81   80   81 1   
    82   80   83 1   
    83   80   87 1   
    84   81   82 2   
    85   81   93 1   
    86   83   84 1   
    87   83   85 1   
    88   83   88 1   
    89   84   90 1   
    90   84   91 1   
    91   84   92 1   
    92   85   89 1   
    93   93   94 1   
    94   93  101 1   
    95   94   95 1   
    96   94   97 1   
    97   94  102 1   
    98   95   96 2   
    99   95  112 1   
   100   97   98 1   
   101   97   99 1   
   102   97  103 1   
   103   98  100 1   
   104   98  104 1   
   105   98  105 1   
   106   99  106 1   
   107   99  107 1   
   108   99  108 1   
   109  100  109 1   
   110  100  110 1   
   111  100  111 1   
   112  112  113 1   
   113  112  119 1   
   114  113  114 1   
   115  113  116 1   
   116  113  120 1   
   117  114  115 2   
   118  114  126 1   
   119  116  117 1   
   120  116  118 1   
   121  116  121 1   
   122  117  123 1   
   123  117  124 1   
   124  117  125 1   
   125  118  122 1   
   126  126  127 1   
   127  126  133 1   
   128  127  128 1   
   129  127  130 1   
   130  127  134 1   
   131  128  129 2   
   132  128  140 1   
   133  130  131 1   
   134  130  132 1   
   135  130  135 1   
   136  131  137 1   
   137  131  138 1   
   138  131  139 1   
   139  132  136 1   
   140  140  141 1   
   141  140  149 1   
   142  141  142 1   
   143  141  144 1   
   144  141  150 1   
   145  142  143 2   
   146  142  162 1   
   147  144  145 1   
   148  144  151 1   
   149  144  152 1   
   150  145  146 1   
   151  145  153 1   
   152  145  154 1   
   153  146  147 1   
   154  146  155 1   
   155  146  156 1   
   156  147  148 1   
   157  147  157 1   
   158  147  158 1   
   159  148  159 1   
   160  148  160 1   
   161  148  161 1   
   162  162  163 1   
   163  162  171 1   
   164  163  164 1   
   165  163  166 1   
   166  163  172 1   
   167  164  165 2   
   168  164  177 1   
   169  166  167 1   
   170  166  173 1   
   171  166  174 1   
   172  167  168 1   
   173  167  175 1   
   174  167  176 1   
   175  168  169 1   
   176  168  170 1   
   177  177  178 1   
   178  177  182 1   
   179  178  179 1   
   180  178  180 1   
   181  178  181 1   
   182  184  185 1   
   183  184  186 1   
   184  187  188 1   
   185  187  189 1   
   186  190  191 1   
   187  190  192 1   
@<TRIPOS>SUBSTRUCTURE
     1 MOL         1 TEMP              0 ****  ****    0 ROOT
