@<TRIPOS>MOLECULE
MOL
  182   178     1     0     0
SMALL
resp


@<TRIPOS>ATOM
      1 C1          0.4830   -4.7620    5.9390 c3        1 MOL     -0.381463
      2 C2          0.6660   -4.3730    4.4750 c         1 MOL      0.768585
      3 O1         -0.2470   -4.5410    3.6450 o         1 MOL     -0.600502
      4 H1          0.4950   -3.8640    6.5570 hc        1 MOL      0.102075
      5 H2         -0.4710   -5.2750    6.0630 hc        1 MOL      0.102075
      6 H3          1.2940   -5.4230    6.2440 hc        1 MOL      0.102075
      7 N1          1.8750   -3.9620    4.1320 n         1 MOL     -0.585946
      8 C3          2.2810   -3.5900    2.7790 c3        1 MOL      0.028289
      9 C4          2.6210   -4.9140    1.9230 c         1 MOL      0.521283
     10 O2          3.0520   -5.9570    2.4310 o         1 MOL     -0.547489
     11 C5          3.4110   -2.4770    2.6760 c3        1 MOL      0.030961
     12 C6          3.3910   -1.6410    1.4310 c         1 MOL      0.662409
     13 O3          3.9740   -0.5030    1.4940 o         1 MOL     -0.712555
     14 O4          2.8350   -2.1170    0.4270 o         1 MOL     -0.712555
     15 H4          2.5730   -3.8200    4.8530 hn        1 MOL      0.305136
     16 H5          1.4140   -3.1310    2.3080 h1        1 MOL      0.124936
     17 H6          4.4470   -2.8240    2.7450 hc        1 MOL      0.028508
     18 H7          3.3610   -1.8380    3.5610 hc        1 MOL      0.028508
     19 N2          2.5130   -4.7600    0.6050 n         1 MOL     -0.054748
     20 C7          2.9470   -5.6220   -0.4320 c3        1 MOL     -0.099093
     21 C8          4.2950   -5.3290   -1.1530 c         1 MOL      0.566660
     22 O5          4.9480   -6.2170   -1.6160 o         1 MOL     -0.545799
     23 C9          1.7530   -5.7370   -1.3830 c3        1 MOL      0.167824
     24 C10         1.3510   -4.5590   -2.3010 c3        1 MOL     -0.005623
     25 C11        -0.0150   -4.9100   -3.0350 c3        1 MOL     -0.030807
     26 C12        -0.2350   -3.8030   -4.1090 c3        1 MOL      0.055252
     27 N3          0.5050   -4.0520   -5.3800 n4        1 MOL     -0.288253
     28 H8          2.2050   -3.8310    0.3880 hn        1 MOL     -0.287091
     29 H9          3.0750   -6.6580   -0.1070 h1        1 MOL      0.097619
     30 H10         0.8620   -6.0280   -0.8280 hc        1 MOL     -0.028148
     31 H11         1.9140   -6.6250   -1.9940 hc        1 MOL     -0.028148
     32 H12         2.1870   -4.5730   -2.9890 hc        1 MOL     -0.048848
     33 H13         1.3410   -3.6290   -1.7270 hc        1 MOL     -0.048848
     34 H14        -0.8230   -5.0300   -2.3090 hc        1 MOL      0.056040
     35 H15         0.0370   -5.8460   -3.5970 hc        1 MOL      0.056040
     36 H16         0.0950   -2.8620   -3.6820 hx        1 MOL      0.047832
     37 H17        -1.3080   -3.7720   -4.3070 hx        1 MOL      0.047832
     38 H18        -0.0830   -3.9100   -6.1840 hn        1 MOL      0.291314
     39 H19         1.3290   -3.4780   -5.4130 hn        1 MOL      0.291314
     40 H20         0.7570   -5.0340   -5.4120 hn        1 MOL      0.291314
     41 N4          4.5880   -4.0650   -1.1720 n         1 MOL     -0.449717
     42 C13         5.7400   -3.4640   -1.9160 c3        1 MOL      0.135661
     43 C14         6.6470   -2.6010   -0.9760 c         1 MOL      0.391711
     44 O6          7.7880   -2.3500   -1.3740 o         1 MOL     -0.522424
     45 C15         5.2560   -2.6530   -3.1240 c3        1 MOL     -0.412190
     46 C16         4.2870   -1.5280   -2.7320 c         1 MOL      0.728182
     47 O7          4.5840   -0.5720   -1.9420 o         1 MOL     -0.686097
     48 O8          3.0980   -1.7720   -3.1610 o         1 MOL     -0.686097
     49 H21         3.9330   -3.3660   -0.8580 hn        1 MOL      0.458298
     50 H22         6.3860   -4.2620   -2.2710 h1        1 MOL      0.108327
     51 H23         4.7670   -3.4030   -3.7460 hc        1 MOL      0.122195
     52 H24         6.0630   -2.2430   -3.7280 hc        1 MOL      0.122195
     53 N5          6.2500   -2.2420    0.3060 n         1 MOL     -0.103163
     54 C17         7.0630   -1.6050    1.3180 c3        1 MOL     -0.242585
     55 C18         7.4630   -0.1260    1.1000 c         1 MOL      0.603067
     56 O9          8.1990    0.3200    1.8930 o         1 MOL     -0.566823
     57 H25         5.2570   -2.3780    0.4580 hn        1 MOL     -0.038384
     58 H26         8.0090   -2.1230    1.4950 h1        1 MOL      0.130417
     59 H27         6.5040   -1.6410    2.2560 h1        1 MOL      0.130417
     60 N6          7.0030    0.4520    0.0210 n         1 MOL     -0.250724
     61 C19         7.1480    1.8450   -0.5310 c3        1 MOL      0.043805
     62 C20         5.8850    2.6920   -0.3860 c         1 MOL      0.520172
     63 O10         4.8130    2.2000   -0.6600 o         1 MOL     -0.514971
     64 C21         7.6470    1.6300   -1.9580 c3        1 MOL     -0.163901
     65 C22         8.0830    2.9210   -2.6500 c         1 MOL      0.636244
     66 N7          9.2540    3.0610   -3.1670 n         1 MOL     -0.768355
     67 O11         7.3270    3.8470   -2.7640 o         1 MOL     -0.562904
     68 H28         6.3130   -0.1390   -0.4280 hn        1 MOL      0.203750
     69 H29         7.9530    2.3390    0.0160 h1        1 MOL      0.033136
     70 H30         6.8140    1.2150   -2.5360 hc        1 MOL      0.070805
     71 H31         8.4050    0.8470   -1.9680 hc        1 MOL      0.070805
     72 H32         9.9180    2.3130   -3.2730 hn        1 MOL      0.361779
     73 H33         9.5920    3.9660   -3.4850 hn        1 MOL      0.361779
     74 N8          6.0410    3.9990   -0.1110 n         1 MOL     -0.473097
     75 C23         4.9760    5.0240   -0.0600 c3        1 MOL     -0.052478
     76 C24         3.8520    4.7360    0.9420 c         1 MOL      0.607309
     77 O12         4.0570    4.3730    2.0820 o         1 MOL     -0.486249
     78 H34         6.9750    4.3800   -0.1830 hn        1 MOL      0.348092
     79 H35         4.4950    4.9360   -1.0320 h1        1 MOL      0.084006
     80 H36         5.2960    6.0510    0.0840 h1        1 MOL      0.084006
     81 N9          2.5550    4.8700    0.5250 n         1 MOL     -0.607917
     82 C25         1.4250    4.5300    1.3470 c3        1 MOL      0.198326
     83 C26         1.4040    2.9960    1.6740 c         1 MOL      0.548921
     84 O13         2.2630    2.1920    1.1490 o         1 MOL     -0.523532
     85 C27         0.1980    4.8660    0.4540 c3        1 MOL     -0.378237
     86 C28         0.0570    6.3940    0.1490 ca        1 MOL      0.181569
     87 C29        -0.1780    7.2970    1.2300 ca        1 MOL     -0.229811
     88 C30         0.2960    6.9230   -1.0950 ca        1 MOL     -0.229811
     89 C31        -0.1100    8.6600    1.0560 ca        1 MOL     -0.158895
     90 C32         0.4000    8.3290   -1.2450 ca        1 MOL     -0.158895
     91 C33         0.2520    9.2190   -0.1620 ca        1 MOL      0.251501
     92 O14         0.0720   10.4950   -0.4070 oh        1 MOL     -0.463334
     93 H37         2.4090    4.9840   -0.4690 hn        1 MOL      0.300303
     94 H38         1.4060    5.1460    2.2460 h1        1 MOL      0.086110
     95 H39        -0.6690    4.4990    1.0070 hc        1 MOL      0.102537
     96 H40         0.2630    4.3630   -0.5080 hc        1 MOL      0.102537
     97 H41        -0.3450    6.8320    2.1890 ha        1 MOL      0.142433
     98 H42         0.3090    6.3180   -1.9820 ha        1 MOL      0.142433
     99 H43        -0.3440    9.2670    1.9160 ha        1 MOL      0.127702
    100 H44         0.5560    8.7510   -2.2310 ha        1 MOL      0.127702
    101 H45        -0.1500   11.0410    0.3540 ho        1 MOL      0.394506
    102 N10         0.3150    2.5540    2.4280 n         1 MOL     -0.698765
    103 C34        -0.0460    1.1330    2.7940 c3        1 MOL      0.327078
    104 C35        -0.2460    0.1910    1.5840 c         1 MOL      0.028929
    105 O15         0.6270   -0.1210    0.8270 o         1 MOL      0.007255
    106 C36         0.9730    0.4580    3.7990 c3        1 MOL      0.129062
    107 C37         0.4440   -0.9260    4.2400 c3        1 MOL     -0.279394
    108 C38         1.2840    1.4000    4.9810 c3        1 MOL     -0.168417
    109 C39        -0.9210   -0.7270    5.0130 c3        1 MOL     -0.117281
    110 H46        -0.3740    3.2630    2.6240 hn        1 MOL      0.346620
    111 H47        -0.9830    1.2720    3.3310 h1        1 MOL      0.027701
    112 H48         1.8660    0.3980    3.1720 hc        1 MOL     -0.010545
    113 H49         1.1830   -1.2220    4.9750 hc        1 MOL      0.099604
    114 H50         0.4550   -1.6160    3.4060 hc        1 MOL      0.099604
    115 H51         0.3600    1.7610    5.4190 hc        1 MOL      0.053717
    116 H52         1.8700    0.9780    5.8050 hc        1 MOL      0.053717
    117 H53         1.7420    2.3460    4.6690 hc        1 MOL      0.053717
    118 H54        -1.0910   -1.6800    5.5250 hc        1 MOL      0.036769
    119 H55        -0.9140    0.0810    5.7560 hc        1 MOL      0.036769
    120 H56        -1.7140   -0.5890    4.2840 hc        1 MOL      0.036769
    121 N11        -1.4840   -0.2770    1.3270 n         1 MOL     -0.278772
    122 C40        -1.8530   -1.0600    0.0830 c3        1 MOL     -0.092007
    123 C41        -3.3100   -1.0750   -0.2960 c         1 MOL      0.535581
    124 O16        -3.6740   -1.6320   -1.3360 o         1 MOL     -0.522476
    125 C42        -1.5170   -2.5390    0.3340 c3        1 MOL     -0.032186
    126 O17        -0.1930   -2.7750   -0.1690 oh        1 MOL     -0.284340
    127 H57        -2.2560    0.1150    1.8340 hn        1 MOL      0.222313
    128 H58        -1.3140   -0.6220   -0.7630 h1        1 MOL      0.077448
    129 H59        -2.2240   -3.1330   -0.2510 h1        1 MOL      0.111880
    130 H60        -1.6300   -2.8660    1.3590 h1        1 MOL      0.111880
    131 H61         0.3050   -1.9630   -0.0480 ho        1 MOL      0.200282
    132 N12        -4.1510   -0.6570    0.6200 n         1 MOL     -0.473629
    133 C43        -5.5600   -0.6010    0.2970 c3        1 MOL      0.035133
    134 C44        -5.8730    0.1510   -1.0230 c         1 MOL      0.581053
    135 O18        -5.2070    1.1670   -1.3130 o         1 MOL     -0.559201
    136 C45        -6.2020    0.0390    1.6190 c3        1 MOL     -0.146932
    137 H62        -3.8050   -0.1940    1.4540 hn        1 MOL      0.308045
    138 H63        -5.9690   -1.5910    0.1020 h1        1 MOL      0.115736
    139 H64        -7.2930   -0.0730    1.6480 hc        1 MOL      0.055813
    140 H65        -5.8030   -0.3930    2.5330 hc        1 MOL      0.055813
    141 H66        -6.0360    1.1130    1.7140 hc        1 MOL      0.055813
    142 N13        -7.0740   -0.0090   -1.7270 n         1 MOL     -0.524431
    143 C46        -8.2580   -0.8480   -1.5350 c3        1 MOL      0.152497
    144 C47        -9.5820   -0.1970   -2.0490 c         1 MOL      0.499173
    145 O19        -9.5780    0.7040   -2.8670 o         1 MOL     -0.524193
    146 C48        -7.9210   -2.1610   -2.2480 c3        1 MOL     -0.188258
    147 H67        -7.2450    0.7260   -2.3980 hn        1 MOL      0.300031
    148 H68        -8.3360   -1.0330   -0.4600 h1        1 MOL     -0.007980
    149 H69        -7.0130   -2.6980   -1.9800 hc        1 MOL      0.058907
    150 H70        -8.7360   -2.8720   -2.1410 hc        1 MOL      0.058907
    151 H71        -7.8710   -2.0210   -3.3230 hc        1 MOL      0.058907
    152 N14       -10.7400   -0.5210   -1.5240 n         1 MOL     -0.353580
    153 C49       -10.9840   -1.1290   -0.1830 c3        1 MOL     -0.223786
    154 C50       -10.3960   -0.2390    0.9330 c         1 MOL      0.665942
    155 O20        -9.9460   -0.7300    1.9670 o         1 MOL     -0.610025
    156 C51       -12.4910   -1.4870   -0.0190 c3        1 MOL     -0.078472
    157 C52       -13.3340   -0.2270    0.1900 c3        1 MOL     -0.099721
    158 C53       -13.6600    0.5390   -1.1420 c         1 MOL      0.707177
    159 O21       -13.1120    1.6500   -1.3580 o         1 MOL     -0.686707
    160 O22       -14.4500   -0.0110   -1.9380 o         1 MOL     -0.686707
    161 H72       -11.5440   -0.0370   -1.9140 hn        1 MOL      0.284491
    162 H73       -10.4500   -2.0780   -0.2020 h1        1 MOL      0.086380
    163 H74       -12.5890   -2.1520    0.8320 hc        1 MOL      0.067349
    164 H75       -12.8770   -1.9880   -0.9100 hc        1 MOL      0.067349
    165 H76       -13.0120    0.4520    0.9880 hc        1 MOL     -0.007644
    166 H77       -14.3310   -0.6270    0.3550 hc        1 MOL     -0.007644
    167 N15       -10.3830    1.0640    0.7150 n         1 MOL     -0.129079
    168 C54        -9.8750    2.0680    1.6510 c3        1 MOL     -0.357810
    169 H78        -9.8130    3.0340    1.1490 h1        1 MOL      0.132544
    170 H79       -10.5490    2.1460    2.5040 h1        1 MOL      0.132544
    171 H80        -8.8830    1.7750    1.9960 h1        1 MOL      0.132544
    172 H81       -10.6460    1.3080   -0.2270 hn        1 MOL      0.181980
    173 Ca1         2.7070    0.4680   -0.6950 Ca        1 MOL      1.728170
    174 O23         3.4820    1.7100   -3.1140 oh        1 MOL     -0.867786
    175 H82         3.3940    1.6840   -4.0620 ho        1 MOL      0.422372
    176 H83         4.2670    2.2320   -2.9570 ho        1 MOL      0.422372
    177 O24         0.6650    1.9400   -1.3060 oh        1 MOL     -0.867786
    178 H84         0.6570    2.5400   -2.0460 ho        1 MOL      0.422372
    179 H85        -0.2370    1.9330   -0.9810 ho        1 MOL      0.422372
    180 O25         0.9640   -0.7950   -2.2970 oh        1 MOL     -0.867786
    181 H86         1.6270   -1.3660   -2.6820 ho        1 MOL      0.422372
    182 H87         0.1790   -0.9360   -2.8290 ho        1 MOL      0.422372
@<TRIPOS>BOND
     1    1    2 1   
     2    1    4 1   
     3    1    5 1   
     4    1    6 1   
     5    2    3 2   
     6    2    7 1   
     7    7    8 1   
     8    7   15 1   
     9    8    9 1   
    10    8   11 1   
    11    8   16 1   
    12    9   10 2   
    13    9   19 1   
    14   11   12 1   
    15   11   17 1   
    16   11   18 1   
    17   12   13 1   
    18   12   14 1   
    19   19   20 1   
    20   19   28 1   
    21   20   21 1   
    22   20   23 1   
    23   20   29 1   
    24   21   22 2   
    25   21   41 1   
    26   23   24 1   
    27   23   30 1   
    28   23   31 1   
    29   24   25 1   
    30   24   32 1   
    31   24   33 1   
    32   25   26 1   
    33   25   34 1   
    34   25   35 1   
    35   26   27 1   
    36   26   36 1   
    37   26   37 1   
    38   27   38 1   
    39   27   39 1   
    40   27   40 1   
    41   41   42 1   
    42   41   49 1   
    43   42   43 1   
    44   42   45 1   
    45   42   50 1   
    46   43   44 2   
    47   43   53 1   
    48   45   46 1   
    49   45   51 1   
    50   45   52 1   
    51   46   47 1   
    52   46   48 1   
    53   53   54 1   
    54   53   57 1   
    55   54   55 1   
    56   54   58 1   
    57   54   59 1   
    58   55   56 2   
    59   55   60 1   
    60   60   61 1   
    61   60   68 1   
    62   61   62 1   
    63   61   64 1   
    64   61   69 1   
    65   62   63 2   
    66   62   74 1   
    67   64   65 1   
    68   64   70 1   
    69   64   71 1   
    70   65   66 1   
    71   65   67 2   
    72   66   72 1   
    73   66   73 1   
    74   74   75 1   
    75   74   78 1   
    76   75   76 1   
    77   75   79 1   
    78   75   80 1   
    79   76   77 2   
    80   76   81 1   
    81   81   82 1   
    82   81   93 1   
    83   82   83 1   
    84   82   85 1   
    85   82   94 1   
    86   83   84 2   
    87   83  102 1   
    88   85   86 1   
    89   85   95 1   
    90   85   96 1   
    91   86   87 ar  
    92   86   88 ar  
    93   87   89 ar  
    94   87   97 1   
    95   88   90 ar  
    96   88   98 1   
    97   89   91 ar  
    98   89   99 1   
    99   90   91 ar  
   100   90  100 1   
   101   91   92 1   
   102   92  101 1   
   103  102  103 1   
   104  102  110 1   
   105  103  104 1   
   106  103  106 1   
   107  103  111 1   
   108  104  105 2   
   109  104  121 1   
   110  106  107 1   
   111  106  108 1   
   112  106  112 1   
   113  107  109 1   
   114  107  113 1   
   115  107  114 1   
   116  108  115 1   
   117  108  116 1   
   118  108  117 1   
   119  109  118 1   
   120  109  119 1   
   121  109  120 1   
   122  121  122 1   
   123  121  127 1   
   124  122  123 1   
   125  122  125 1   
   126  122  128 1   
   127  123  124 2   
   128  123  132 1   
   129  125  126 1   
   130  125  129 1   
   131  125  130 1   
   132  126  131 1   
   133  132  133 1   
   134  132  137 1   
   135  133  134 1   
   136  133  136 1   
   137  133  138 1   
   138  134  135 2   
   139  134  142 1   
   140  136  139 1   
   141  136  140 1   
   142  136  141 1   
   143  142  143 1   
   144  142  147 1   
   145  143  144 1   
   146  143  146 1   
   147  143  148 1   
   148  144  145 2   
   149  144  152 1   
   150  146  149 1   
   151  146  150 1   
   152  146  151 1   
   153  152  153 1   
   154  152  161 1   
   155  153  154 1   
   156  153  156 1   
   157  153  162 1   
   158  154  155 2   
   159  154  167 1   
   160  156  157 1   
   161  156  163 1   
   162  156  164 1   
   163  157  158 1   
   164  157  165 1   
   165  157  166 1   
   166  158  159 1   
   167  158  160 1   
   168  167  168 1   
   169  167  172 1   
   170  168  169 1   
   171  168  170 1   
   172  168  171 1   
   173  174  175 1   
   174  174  176 1   
   175  177  178 1   
   176  177  179 1   
   177  180  181 1   
   178  180  182 1   
@<TRIPOS>SUBSTRUCTURE
     1 MOL         1 TEMP              0 ****  ****    0 ROOT
