@<TRIPOS>MOLECULE
MOL
  186   183     1     0     0
SMALL
resp


@<TRIPOS>ATOM
      1 C1          7.0400    5.0120   -2.2340 c3        1 MOL     -0.393511
      2 C2          6.9970    3.7560   -1.3110 c         1 MOL      0.682917
      3 O1          5.9590    3.4900   -0.6080 o         1 MOL     -0.580638
      4 H1          6.3400    4.8810   -3.0590 hc        1 MOL      0.101319
      5 H2          6.7620    5.8960   -1.6600 hc        1 MOL      0.101319
      6 H3          8.0470    5.1380   -2.6310 hc        1 MOL      0.101319
      7 N1          8.0630    2.9450   -1.2480 n         1 MOL     -0.524287
      8 C3          8.0940    1.5700   -0.6620 c3        1 MOL     -0.020545
      9 C4          6.8610    0.6850   -1.0680 c         1 MOL      0.517187
     10 O2          6.0500    0.3900   -0.2380 o         1 MOL     -0.550436
     11 C5          8.6100    1.4800    0.7740 c3        1 MOL     -0.007931
     12 C6          8.0740    2.5860    1.7250 c         1 MOL      0.747767
     13 O3          6.8240    2.6700    2.0030 o         1 MOL     -0.743907
     14 O4          8.9310    3.4020    2.1400 o         1 MOL     -0.743907
     15 H4          8.9310    3.2670   -1.6580 hn        1 MOL      0.320449
     16 H5          8.9390    1.1580   -1.2110 h1        1 MOL      0.046866
     17 H6          9.6960    1.5020    0.8520 hc        1 MOL     -0.000830
     18 H7          8.2970    0.5290    1.2120 hc        1 MOL     -0.000830
     19 N2          6.8710    0.1940   -2.2610 n         1 MOL     -0.554366
     20 C7          5.8950   -0.6030   -2.9290 c3        1 MOL      0.183586
     21 C8          6.0170   -2.0310   -2.3870 c         1 MOL      0.514259
     22 O5          6.3830   -2.8740   -3.2210 o         1 MOL     -0.611036
     23 C9          4.4850    0.0200   -2.8560 c3        1 MOL      0.162691
     24 C10         3.4180   -0.9400   -3.4500 c3        1 MOL     -0.263897
     25 C11         4.4470    1.4260   -3.4710 c3        1 MOL     -0.254087
     26 C12         3.3350   -1.0350   -4.9660 c3        1 MOL     -0.193624
     27 H8          7.7240    0.2820   -2.7980 hn        1 MOL      0.297604
     28 H9          6.1070   -0.6110   -3.9960 h1        1 MOL      0.012038
     29 H10         4.2420    0.0550   -1.7940 hc        1 MOL     -0.094358
     30 H11         2.4120   -0.5300   -3.3650 hc        1 MOL      0.141807
     31 H12         3.4640   -1.9130   -2.9750 hc        1 MOL      0.141807
     32 H13         5.1180    2.0910   -2.9260 hc        1 MOL      0.065157
     33 H14         4.7370    1.2710   -4.5190 hc        1 MOL      0.065157
     34 H15         3.4740    1.8950   -3.3330 hc        1 MOL      0.065157
     35 H16         3.2310   -0.0600   -5.4440 hc        1 MOL      0.043227
     36 H17         4.1570   -1.6580   -5.3150 hc        1 MOL      0.043227
     37 H18         2.4320   -1.6090   -5.1710 hc        1 MOL      0.043227
     38 N3          5.9220   -2.3280   -1.1420 n         1 MOL     -0.326460
     39 C13         6.2980   -3.5810   -0.4150 c3        1 MOL      0.047107
     40 C14         5.2950   -4.7160   -0.6230 c         1 MOL      0.629427
     41 O6          5.5920   -5.7160   -1.2960 o         1 MOL     -0.588978
     42 C15         6.9030   -3.3180    1.0040 c3        1 MOL     -0.264104
     43 C16         7.4400   -4.5190    1.7080 c         1 MOL      0.778246
     44 O7          8.5360   -4.9410    1.4480 o         1 MOL     -0.731506
     45 O8          6.6830   -5.0130    2.5470 o         1 MOL     -0.731506
     46 H19         5.7400   -1.5360   -0.5430 hn        1 MOL      0.325048
     47 H20         7.1480   -3.9870   -0.9760 h1        1 MOL      0.056185
     48 H21         6.1560   -2.8380    1.6330 hc        1 MOL      0.064540
     49 H22         7.7460   -2.6380    0.9910 hc        1 MOL      0.064540
     50 N4          4.0520   -4.6440   -0.1970 n         1 MOL     -0.516723
     51 C17         3.3240   -3.4980    0.3170 c3        1 MOL      0.199531
     52 C18         2.5370   -3.9530    1.5520 c         1 MOL      0.603441
     53 O9          2.1630   -5.1310    1.6620 o         1 MOL     -0.584316
     54 H23         3.5060   -5.4900   -0.3120 hn        1 MOL      0.282404
     55 H24         2.5830   -3.1180   -0.3800 h1        1 MOL     -0.010215
     56 H25         4.0880   -2.7450    0.4890 h1        1 MOL     -0.010215
     57 N5          1.9750   -3.1260    2.4470 n         1 MOL     -0.488007
     58 C19         2.2300   -1.7080    2.6350 c3        1 MOL      0.120384
     59 C20         2.1130   -0.9080    1.3650 c         1 MOL      0.208335
     60 O10         3.1360   -0.4570    0.7860 o         1 MOL     -0.492632
     61 C21         3.6580   -1.5440    3.3240 c3        1 MOL     -0.170639
     62 C22         3.9010   -0.1580    3.7690 c         1 MOL      0.953819
     63 O11         3.2420    0.3790    4.6790 o         1 MOL     -0.818685
     64 O12         4.8430    0.4740    3.2220 o         1 MOL     -0.818685
     65 H26         1.3730   -3.5900    3.1160 hn        1 MOL      0.281515
     66 H27         1.5670   -1.2590    3.3720 h1        1 MOL      0.080344
     67 H28         4.5430   -1.7630    2.7320 hc        1 MOL      0.030200
     68 H29         3.6710   -2.0980    4.2570 hc        1 MOL      0.030200
     69 N6          0.9170   -0.8860    0.7660 n         1 MOL     -0.106118
     70 C23        -0.4320   -1.3710    1.1980 c3        1 MOL     -0.034843
     71 C24        -0.9290   -2.7110    0.5750 c         1 MOL      0.539995
     72 O13        -0.1990   -3.2930   -0.2820 o         1 MOL     -0.506142
     73 H30         0.9900   -0.4200   -0.1390 hn        1 MOL      0.134494
     74 H31        -1.1420   -0.6230    0.8560 h1        1 MOL      0.037303
     75 H32        -0.4710   -1.4120    2.2870 h1        1 MOL      0.037303
     76 N7         -2.0580   -3.1900    1.0400 n         1 MOL     -0.498524
     77 C25        -2.7280   -4.4040    0.6700 c3        1 MOL      0.077759
     78 C26        -3.2810   -4.2650   -0.7960 c         1 MOL      0.345342
     79 O14        -3.9830   -5.1260   -1.3540 o         1 MOL     -0.543653
     80 C27        -3.8020   -4.8140    1.6800 c3        1 MOL      0.034038
     81 C28        -3.2040   -5.1080    3.0570 c3        1 MOL     -0.183708
     82 C29        -4.2870   -5.2980    4.0940 c         1 MOL      0.637818
     83 N8         -4.9770   -4.2960    4.5460 n         1 MOL     -0.739085
     84 O15        -4.4990   -6.4310    4.6400 o         1 MOL     -0.575656
     85 H33        -2.6190   -2.7200    1.7500 hn        1 MOL      0.300511
     86 H34        -1.9790   -5.1930    0.6870 h1        1 MOL      0.141012
     87 H35        -4.2590   -5.7250    1.2950 hc        1 MOL     -0.002541
     88 H36        -4.5360   -4.0180    1.8490 hc        1 MOL     -0.002541
     89 H37        -2.5740   -4.3300    3.4950 hc        1 MOL      0.078057
     90 H38        -2.5970   -6.0180    3.0830 hc        1 MOL      0.078057
     91 H39        -4.7890   -3.3360    4.2860 hn        1 MOL      0.350756
     92 H40        -5.7890   -4.4030    5.1300 hn        1 MOL      0.350756
     93 N9         -3.0930   -3.1740   -1.5080 n         1 MOL     -0.023584
     94 C30        -3.4330   -2.9610   -2.9080 c3        1 MOL     -0.258245
     95 C31        -4.5710   -1.9920   -3.2670 c         1 MOL      0.482853
     96 O16        -4.6940   -1.5490   -4.4500 o         1 MOL     -0.500969
     97 C32        -2.1620   -2.4940   -3.6630 c3        1 MOL      0.154086
     98 C33        -1.0120   -3.5450   -3.6190 c3        1 MOL     -0.279616
     99 C34        -1.6790   -1.1370   -3.0700 c3        1 MOL     -0.279616
    100 H41        -2.5000   -2.4800   -1.0780 hn        1 MOL      0.065622
    101 H42        -3.6960   -3.9510   -3.2700 h1        1 MOL      0.173367
    102 H43        -2.4110   -2.2890   -4.7060 hc        1 MOL      0.033236
    103 H44        -0.7990   -4.0390   -2.6730 hc        1 MOL      0.080428
    104 H45        -1.2780   -4.3770   -4.2700 hc        1 MOL      0.080428
    105 H46        -0.0800   -3.1160   -3.9990 hc        1 MOL      0.080428
    106 H47        -1.5440   -1.2250   -1.9830 hc        1 MOL      0.080428
    107 H48        -0.7640   -0.9370   -3.6170 hc        1 MOL      0.080428
    108 H49        -2.4660   -0.4280   -3.3350 hc        1 MOL      0.080428
    109 N10        -5.3850   -1.6800   -2.2800 n         1 MOL     -0.266161
    110 C35        -6.4740   -0.7080   -2.4690 c3        1 MOL     -0.005794
    111 C36        -6.2980    0.7170   -1.8190 c         1 MOL      0.775776
    112 O17        -6.7240    1.6930   -2.3660 o         1 MOL     -0.582676
    113 C37        -7.7600   -1.3370   -1.9300 c3        1 MOL     -0.277838
    114 C38        -8.1610   -2.7520   -2.5480 c         1 MOL      0.610203
    115 N11        -8.4340   -3.6440   -1.6380 n         1 MOL     -0.746016
    116 O18        -8.1060   -3.0230   -3.7030 o         1 MOL     -0.501259
    117 H50        -5.2920   -2.0500   -1.3480 hn        1 MOL      0.227784
    118 H51        -6.5950   -0.4720   -3.5240 h1        1 MOL      0.072291
    119 H52        -8.5790   -0.6400   -2.0870 hc        1 MOL      0.083868
    120 H53        -7.6990   -1.3810   -0.8470 hc        1 MOL      0.083868
    121 H54        -8.2940   -3.3470   -0.6760 hn        1 MOL      0.351910
    122 H55        -8.9840   -4.4450   -1.9240 hn        1 MOL      0.351910
    123 N12        -5.6160    0.8070   -0.6890 n         1 MOL     -0.812028
    124 C39        -5.6960    2.0060    0.1340 c3        1 MOL      0.389375
    125 C40        -4.3220    2.6050    0.4260 c         1 MOL      0.497568
    126 O19        -3.2790    1.9710    0.5480 o         1 MOL     -0.476524
    127 C41        -6.5380    1.8370    1.4800 c3        1 MOL      0.044579
    128 C42        -7.9360    1.3630    1.1520 ca        1 MOL     -0.029217
    129 C43        -8.4140    0.0830    1.5580 ca        1 MOL     -0.131141
    130 C44        -8.8070    2.2050    0.4140 ca        1 MOL     -0.131141
    131 C45        -9.6120   -0.4120    1.0330 ca        1 MOL     -0.274826
    132 C46       -10.1710    1.8280    0.2000 ca        1 MOL     -0.274826
    133 C47       -10.5380    0.5020    0.5220 ca        1 MOL      0.369771
    134 O20       -11.7490    0.0560    0.1850 oh        1 MOL     -0.572290
    135 H56        -5.2970   -0.0700   -0.3160 hn        1 MOL      0.311753
    136 H57        -6.1880    2.8070   -0.4190 h1        1 MOL      0.002076
    137 H58        -6.5310    2.7190    2.1120 hc        1 MOL     -0.003795
    138 H59        -6.0400    1.0090    1.9960 hc        1 MOL     -0.003795
    139 H60        -7.7990   -0.5560    2.1740 ha        1 MOL      0.121290
    140 H61        -8.4600    3.1630    0.0610 ha        1 MOL      0.121290
    141 H62        -9.8550   -1.4150    1.3350 ha        1 MOL      0.129039
    142 H63       -10.9410    2.4280   -0.2410 ha        1 MOL      0.129039
    143 H64       -12.4260    0.6500   -0.1410 ho        1 MOL      0.417878
    144 N13        -4.3860    3.8820    0.6750 n         1 MOL     -0.569146
    145 C48        -3.3180    4.7480    1.1530 c3        1 MOL      0.061012
    146 C49        -1.9220    4.7320    0.4180 c         1 MOL      0.235410
    147 O21        -0.8700    5.1760    0.9130 o         1 MOL     -0.412236
    148 C50        -3.1900    4.6070    2.6960 c3        1 MOL      0.068024
    149 C51        -4.4910    4.7670    3.5580 c3        1 MOL     -0.186395
    150 C52        -4.1590    4.6780    5.0440 c         1 MOL      0.666197
    151 O22        -4.0430    5.7700    5.6490 o         1 MOL     -0.720331
    152 O23        -4.1310    3.5770    5.6550 o         1 MOL     -0.720331
    153 H65        -5.3270    4.2240    0.5140 hn        1 MOL      0.281569
    154 H66        -3.7590    5.7500    1.0930 h1        1 MOL      0.072169
    155 H67        -2.4710    5.3550    3.0160 hc        1 MOL      0.031566
    156 H68        -2.8840    3.5740    2.8910 hc        1 MOL      0.031566
    157 H69        -5.0680    3.8890    3.2810 hc        1 MOL      0.018023
    158 H70        -4.9830    5.7160    3.3430 hc        1 MOL      0.018023
    159 N14        -1.8330    4.1590   -0.7800 n         1 MOL     -0.259554
    160 C53        -0.6000    4.0620   -1.5590 c3        1 MOL      0.071852
    161 C54        -0.6000    5.0600   -2.7580 c         1 MOL      0.406885
    162 O24         0.4600    5.5540   -3.1500 o         1 MOL     -0.500587
    163 C55        -0.3060    2.6510   -2.0950 c3        1 MOL     -0.282247
    164 C56         0.1830    1.6050   -1.1000 c3        1 MOL      0.295383
    165 C57         1.4770    2.1490   -0.4130 c         1 MOL      0.774909
    166 O25         2.5200    2.3500   -1.0400 o         1 MOL     -0.746492
    167 O26         1.5360    2.1810    0.8420 o         1 MOL     -0.746492
    168 H71        -2.6910    3.7900   -1.1560 hn        1 MOL      0.241074
    169 H72         0.2210    4.4250   -0.9400 h1        1 MOL      0.096758
    170 H73         0.4180    2.7150   -2.9020 hc        1 MOL      0.048777
    171 H74        -1.2810    2.3200   -2.4770 hc        1 MOL      0.048777
    172 H75         0.3140    0.6850   -1.6750 hc        1 MOL     -0.068999
    173 H76        -0.6490    1.4630   -0.4160 hc        1 MOL     -0.068999
    174 N15        -1.7700    5.4230   -3.3620 n         1 MOL     -0.177196
    175 C58        -1.8510    6.2990   -4.4460 c3        1 MOL     -0.347572
    176 H77        -2.8890    6.3850   -4.7670 h1        1 MOL      0.124596
    177 H78        -1.4810    7.2800   -4.1490 h1        1 MOL      0.124596
    178 H79        -1.2470    5.9170   -5.2690 h1        1 MOL      0.124596
    179 H80        -2.6150    5.0860   -2.9190 hn        1 MOL      0.189471
    180 Ca1         4.3280    2.1470    1.1390 Ca        1 MOL      1.773969
    181 O27         3.3380    3.0350    3.6300 oh        1 MOL     -0.862852
    182 H81         3.0330    3.6860    4.2590 ho        1 MOL      0.415638
    183 H82         3.4480    2.2380    4.1350 ho        1 MOL      0.415638
    184 O28         3.7200    4.8560    0.7850 oh        1 MOL     -0.862852
    185 H83         3.7140    5.0000   -0.1580 ho        1 MOL      0.415638
    186 H84         3.1530    5.5400    1.1330 ho        1 MOL      0.415638
@<TRIPOS>BOND
     1    1    2 1   
     2    1    4 1   
     3    1    5 1   
     4    1    6 1   
     5    2    3 2   
     6    2    7 1   
     7    7    8 1   
     8    7   15 1   
     9    8    9 1   
    10    8   11 1   
    11    8   16 1   
    12    9   10 2   
    13    9   19 1   
    14   11   12 1   
    15   11   17 1   
    16   11   18 1   
    17   12   13 1   
    18   12   14 1   
    19   19   20 1   
    20   19   27 1   
    21   20   21 1   
    22   20   23 1   
    23   20   28 1   
    24   21   22 2   
    25   21   38 1   
    26   23   24 1   
    27   23   25 1   
    28   23   29 1   
    29   24   26 1   
    30   24   30 1   
    31   24   31 1   
    32   25   32 1   
    33   25   33 1   
    34   25   34 1   
    35   26   35 1   
    36   26   36 1   
    37   26   37 1   
    38   38   39 1   
    39   38   46 1   
    40   39   40 1   
    41   39   42 1   
    42   39   47 1   
    43   40   41 2   
    44   40   50 1   
    45   42   43 1   
    46   42   48 1   
    47   42   49 1   
    48   43   44 1   
    49   43   45 1   
    50   50   51 1   
    51   50   54 1   
    52   51   52 1   
    53   51   55 1   
    54   51   56 1   
    55   52   53 2   
    56   52   57 1   
    57   57   58 1   
    58   57   65 1   
    59   58   59 1   
    60   58   61 1   
    61   58   66 1   
    62   59   60 2   
    63   59   69 1   
    64   61   62 1   
    65   61   67 1   
    66   61   68 1   
    67   62   63 1   
    68   62   64 1   
    69   69   70 1   
    70   69   73 1   
    71   70   71 1   
    72   70   74 1   
    73   70   75 1   
    74   71   72 2   
    75   71   76 1   
    76   76   77 1   
    77   76   85 1   
    78   77   78 1   
    79   77   80 1   
    80   77   86 1   
    81   78   79 2   
    82   78   93 1   
    83   80   81 1   
    84   80   87 1   
    85   80   88 1   
    86   81   82 1   
    87   81   89 1   
    88   81   90 1   
    89   82   83 1   
    90   82   84 2   
    91   83   91 1   
    92   83   92 1   
    93   93   94 1   
    94   93  100 1   
    95   94   95 1   
    96   94   97 1   
    97   94  101 1   
    98   95   96 2   
    99   95  109 1   
   100   97   98 1   
   101   97   99 1   
   102   97  102 1   
   103   98  103 1   
   104   98  104 1   
   105   98  105 1   
   106   99  106 1   
   107   99  107 1   
   108   99  108 1   
   109  109  110 1   
   110  109  117 1   
   111  110  111 1   
   112  110  113 1   
   113  110  118 1   
   114  111  112 2   
   115  111  123 1   
   116  113  114 1   
   117  113  119 1   
   118  113  120 1   
   119  114  115 1   
   120  114  116 2   
   121  115  121 1   
   122  115  122 1   
   123  123  124 1   
   124  123  135 1   
   125  124  125 1   
   126  124  127 1   
   127  124  136 1   
   128  125  126 2   
   129  125  144 1   
   130  127  128 1   
   131  127  137 1   
   132  127  138 1   
   133  128  129 ar  
   134  128  130 ar  
   135  129  131 ar  
   136  129  139 1   
   137  130  132 ar  
   138  130  140 1   
   139  131  133 ar  
   140  131  141 1   
   141  132  133 ar  
   142  132  142 1   
   143  133  134 1   
   144  134  143 1   
   145  144  145 1   
   146  144  153 1   
   147  145  146 1   
   148  145  148 1   
   149  145  154 1   
   150  146  147 2   
   151  146  159 1   
   152  148  149 1   
   153  148  155 1   
   154  148  156 1   
   155  149  150 1   
   156  149  157 1   
   157  149  158 1   
   158  150  151 1   
   159  150  152 1   
   160  159  160 1   
   161  159  168 1   
   162  160  161 1   
   163  160  163 1   
   164  160  169 1   
   165  161  162 2   
   166  161  174 1   
   167  163  164 1   
   168  163  170 1   
   169  163  171 1   
   170  164  165 1   
   171  164  172 1   
   172  164  173 1   
   173  165  166 1   
   174  165  167 1   
   175  174  175 1   
   176  174  179 1   
   177  175  176 1   
   178  175  177 1   
   179  175  178 1   
   180  181  182 1   
   181  181  183 1   
   182  184  185 1   
   183  184  186 1   
@<TRIPOS>SUBSTRUCTURE
     1 MOL         1 TEMP              0 ****  ****    0 ROOT
