@<TRIPOS>MOLECULE
MOL
  189   185     1     0     0
SMALL
resp


@<TRIPOS>ATOM
      1 C1          4.2980    3.9910   -3.5600 c3        1 MOL     -0.357066
      2 C2          5.1010    3.2160   -2.4360 c         1 MOL      0.798107
      3 O1          4.6460    3.1090   -1.3450 o         1 MOL     -0.637392
      4 H1          3.3380    3.5020   -3.7230 hc        1 MOL      0.082127
      5 H2          4.1300    5.0210   -3.2430 hc        1 MOL      0.082127
      6 H3          4.8700    3.9840   -4.4870 hc        1 MOL      0.082127
      7 N1          6.2050    2.6020   -2.8500 n         1 MOL     -0.750036
      8 C3          6.9310    1.5040   -2.1440 c3        1 MOL      0.321675
      9 C4          6.0720    0.3790   -1.6760 c         1 MOL      0.087184
     10 O2          5.8690    0.1480   -0.4490 o         1 MOL     -0.295231
     11 C5          7.9580    2.0010   -1.0570 c3        1 MOL     -0.106358
     12 C6          7.6780    3.2490   -0.3150 c         1 MOL      0.813459
     13 O3          6.8020    3.1450    0.5350 o         1 MOL     -0.761158
     14 O4          8.3800    4.2690   -0.4680 o         1 MOL     -0.761158
     15 H4          6.4210    2.7750   -3.8210 hn        1 MOL      0.341000
     16 H5          7.5860    1.1430   -2.9320 h1        1 MOL      0.046852
     17 H6          8.8630    2.1590   -1.6320 hc        1 MOL     -0.006767
     18 H7          8.1250    1.2070   -0.3370 hc        1 MOL     -0.006767
     19 N2          5.5520   -0.2910   -2.7270 n         1 MOL     -0.334273
     20 C7          4.7020   -1.5510   -2.7230 c3        1 MOL      0.039758
     21 C8          5.3600   -2.7320   -1.9970 c         1 MOL      0.440610
     22 O5          5.3120   -3.7810   -2.5570 o         1 MOL     -0.567191
     23 C9          3.2560   -1.2560   -2.4610 c3        1 MOL      0.484232
     24 C10         2.3340   -2.4540   -2.5650 c3        1 MOL      0.026177
     25 C11         2.6850   -0.1360   -3.3130 c3        1 MOL     -0.619714
     26 C12         2.2590   -3.1310   -3.8790 c3        1 MOL     -0.513997
     27 H8          5.7750   -0.0280   -3.6780 hn        1 MOL      0.248281
     28 H9          4.7550   -1.8620   -3.7760 h1        1 MOL      0.028382
     29 H10         3.2110   -0.8500   -1.4510 hc        1 MOL     -0.145624
     30 H11         1.3580   -2.0440   -2.2920 hc        1 MOL      0.052820
     31 H12         2.5690   -3.1290   -1.7450 hc        1 MOL      0.052820
     32 H13         1.6030   -0.0510   -3.1740 hc        1 MOL      0.130698
     33 H14         3.0660    0.7690   -2.8530 hc        1 MOL      0.130698
     34 H15         2.9280   -0.2010   -4.3760 hc        1 MOL      0.130698
     35 H16         1.5250   -2.5330   -4.4130 hc        1 MOL      0.118647
     36 H17         3.2260   -3.1550   -4.3880 hc        1 MOL      0.118647
     37 H18         1.8760   -4.1320   -3.7090 hc        1 MOL      0.118647
     38 N3          5.9230   -2.6620   -0.8260 n         1 MOL     -0.249802
     39 C13         6.5790   -3.7890   -0.0840 c3        1 MOL      0.067586
     40 C14         5.7130   -5.0770    0.3840 c         1 MOL      0.535444
     41 O6          6.1450   -6.1780   -0.0100 o         1 MOL     -0.584643
     42 C15         7.5150   -3.2540    0.9700 c3        1 MOL     -0.259161
     43 C16         8.2120   -1.9490    0.7120 c         1 MOL      0.726665
     44 O7          8.8090   -1.6160   -0.3760 o         1 MOL     -0.697344
     45 O8          8.1780   -1.1470    1.6680 o         1 MOL     -0.697344
     46 H19         5.8720   -1.7310   -0.4180 hn        1 MOL      0.212665
     47 H20         7.2780   -4.3420   -0.7050 h1        1 MOL      0.057201
     48 H21         8.2820   -3.9990    1.1720 hc        1 MOL      0.060562
     49 H22         6.8900   -3.1370    1.8500 hc        1 MOL      0.060562
     50 N4          4.5730   -4.9640    1.0160 n         1 MOL     -0.456796
     51 C17         3.8140   -3.8130    1.5010 c3        1 MOL      0.104865
     52 C18         4.1660   -3.3580    2.9150 c         1 MOL      0.471807
     53 O9          5.1380   -3.7940    3.5220 o         1 MOL     -0.542373
     54 H23         4.1190   -5.8500    1.1710 hn        1 MOL      0.268146
     55 H24         2.7560   -4.0580    1.4210 h1        1 MOL      0.056437
     56 H25         3.9930   -2.9730    0.8350 h1        1 MOL      0.056437
     57 N5          3.3940   -2.4700    3.5720 n         1 MOL     -0.482164
     58 C19         2.1810   -1.7420    3.0500 c3        1 MOL      0.171078
     59 C20         2.3460   -1.1560    1.6350 c         1 MOL     -0.002603
     60 O10         3.4820   -0.7560    1.3750 o         1 MOL     -0.323838
     61 C21         1.7150   -0.6490    4.0070 c3        1 MOL     -0.418267
     62 C22         2.7840    0.4540    4.1190 c         1 MOL      0.820025
     63 O11         2.7170    1.3810    3.3170 o         1 MOL     -0.703829
     64 O12         3.6250    0.3470    5.0800 o         1 MOL     -0.703829
     65 H26         3.5890   -2.2740    4.5450 hn        1 MOL      0.323641
     66 H27         1.3720   -2.4770    3.0180 h1        1 MOL      0.024338
     67 H28         1.6030   -1.0740    5.0100 hc        1 MOL      0.096992
     68 H29         0.7710   -0.2420    3.6590 hc        1 MOL      0.096992
     69 N6          1.3330   -0.9840    0.7360 n         1 MOL     -0.119007
     70 C23        -0.0950   -1.3240    1.0360 c3        1 MOL      0.065311
     71 C24        -0.4840   -2.6120    0.4490 c         1 MOL      0.522981
     72 O13         0.3740   -3.4000    0.0210 o         1 MOL     -0.521843
     73 H30         1.5420   -0.4030   -0.0710 hn        1 MOL      0.180933
     74 H31        -0.7780   -0.6210    0.5500 h1        1 MOL      0.074805
     75 H32        -0.3470   -1.2260    2.0850 h1        1 MOL      0.074805
     76 N7         -1.8200   -2.9100    0.6240 n         1 MOL     -0.513260
     77 C25        -2.3630   -4.2380    0.2640 c3        1 MOL      0.125156
     78 C26        -3.2250   -4.2340   -1.0060 c         1 MOL      0.338415
     79 O14        -3.6390   -5.2500   -1.5880 o         1 MOL     -0.516075
     80 C27        -3.0600   -4.8790    1.5190 c3        1 MOL     -0.019889
     81 C28        -4.0560   -3.8200    2.2250 c3        1 MOL     -0.528933
     82 C29        -5.3100   -3.5250    1.3780 c         1 MOL      0.592329
     83 N8         -6.0900   -4.5530    1.2910 n         1 MOL     -0.698582
     84 O15        -5.6020   -2.5080    0.7620 o         1 MOL     -0.494843
     85 H33        -2.4810   -2.2480    0.9980 hn        1 MOL      0.273743
     86 H34        -1.5110   -4.8870    0.0320 h1        1 MOL      0.092527
     87 H35        -2.2580   -5.0530    2.2410 hc        1 MOL      0.048630
     88 H36        -3.3670   -5.8580    1.1840 hc        1 MOL      0.048630
     89 H37        -3.5430   -2.9000    2.5100 hc        1 MOL      0.180660
     90 H38        -4.4090   -4.3510    3.1190 hc        1 MOL      0.180660
     91 H39        -5.8210   -5.4640    1.6430 hn        1 MOL      0.354466
     92 H40        -6.8470   -4.4230    0.6430 hn        1 MOL      0.354466
     93 N9         -3.4380   -2.9640   -1.4540 n         1 MOL     -0.139911
     94 C30        -3.9880   -2.6460   -2.7460 c3        1 MOL     -0.007343
     95 C31        -5.3720   -1.9810   -2.9210 c         1 MOL      0.310281
     96 O16        -5.7240   -1.6900   -4.0170 o         1 MOL     -0.522686
     97 C32        -2.9080   -1.9270   -3.6230 c3        1 MOL      0.220484
     98 C33        -1.7480   -2.8070   -3.8470 c3        1 MOL     -0.154151
     99 C34        -2.5650   -0.5680   -3.1000 c3        1 MOL     -0.154151
    100 H41        -3.0570   -2.2200   -0.8830 hn        1 MOL      0.162618
    101 H42        -4.2060   -3.5690   -3.2770 h1        1 MOL      0.075637
    102 H43        -3.3400   -1.8770   -4.6220 hc        1 MOL     -0.021959
    103 H44        -1.1160   -2.8070   -2.9630 hc        1 MOL      0.024171
    104 H45        -1.9860   -3.8380   -4.0830 hc        1 MOL      0.024171
    105 H46        -1.0280   -2.4280   -4.5730 hc        1 MOL      0.024171
    106 H47        -1.7690   -0.1480   -3.7170 hc        1 MOL      0.024171
    107 H48        -3.4450    0.0600   -2.9910 hc        1 MOL      0.024171
    108 H49        -2.1830   -0.6420   -2.0780 hc        1 MOL      0.024171
    109 N10        -6.0250   -1.6630   -1.8320 n         1 MOL      0.002820
    110 C35        -7.3450   -1.0420   -1.8640 c3        1 MOL     -0.105555
    111 C36        -7.3290    0.4680   -1.5220 c         1 MOL      0.577792
    112 O17        -8.2850    1.2090   -1.7540 o         1 MOL     -0.560622
    113 C37        -8.3290   -1.8580   -1.0690 c3        1 MOL      0.038022
    114 C38        -8.3660   -3.3120   -1.5180 c         1 MOL      0.575368
    115 N11        -8.6880   -3.5750   -2.7850 n         1 MOL     -0.777722
    116 O18        -8.1480   -4.1350   -0.6310 o         1 MOL     -0.563267
    117 H50        -5.6400   -1.9950   -0.9580 hn        1 MOL      0.109953
    118 H51        -7.7240   -1.0650   -2.8840 h1        1 MOL      0.039877
    119 H52        -9.3520   -1.4900   -1.1370 hc        1 MOL     -0.002634
    120 H53        -8.0910   -1.7230   -0.0180 hc        1 MOL     -0.002634
    121 H54        -8.7750   -2.8310   -3.4570 hn        1 MOL      0.379237
    122 H55        -8.7770   -4.5560   -2.9980 hn        1 MOL      0.379237
    123 N12        -6.1800    0.9650   -1.0310 n         1 MOL     -0.361880
    124 C39        -6.0820    2.2700   -0.3860 c3        1 MOL      0.017912
    125 C40        -4.6120    2.8650   -0.2230 c         1 MOL      0.438813
    126 O19        -3.5940    2.1730   -0.0230 o         1 MOL     -0.351894
    127 C41        -6.8840    2.2380    0.9950 c3        1 MOL      0.037484
    128 C42        -6.7030    1.0460    1.9900 ca        1 MOL      0.021854
    129 C43        -7.8060    0.2850    2.4570 ca        1 MOL     -0.092976
    130 C44        -5.3760    0.6680    2.3310 ca        1 MOL     -0.092976
    131 C45        -7.5790   -0.8500    3.2780 ca        1 MOL     -0.245886
    132 C46        -5.2030   -0.4780    3.1340 ca        1 MOL     -0.245886
    133 C47        -6.2610   -1.2920    3.5850 ca        1 MOL      0.326948
    134 O20        -5.9350   -2.3130    4.3820 oh        1 MOL     -0.447429
    135 H56        -5.4240    0.3120   -0.9110 hn        1 MOL      0.162971
    136 H57        -6.5860    2.9250   -1.1000 h1        1 MOL      0.063255
    137 H58        -7.9390    2.2190    0.7170 hc        1 MOL      0.020176
    138 H59        -6.7660    3.1730    1.5470 hc        1 MOL      0.020176
    139 H60        -8.8490    0.5280    2.2680 ha        1 MOL      0.107314
    140 H61        -4.5110    1.2750    2.1410 ha        1 MOL      0.107314
    141 H62        -8.3610   -1.4590    3.7170 ha        1 MOL      0.106653
    142 H63        -4.2710   -0.7750    3.5790 ha        1 MOL      0.106653
    143 H64        -6.7060   -2.8650    4.5280 ho        1 MOL      0.331632
    144 N13        -4.6070    4.2300   -0.2450 n         1 MOL     -0.512468
    145 C48        -3.5670    5.0490    0.3650 c3        1 MOL      0.118179
    146 C49        -2.1500    4.9830   -0.2000 c         1 MOL      0.304838
    147 O21        -1.4290    5.9580   -0.2110 o         1 MOL     -0.502129
    148 C50        -3.5130    4.9420    1.9280 c3        1 MOL     -0.055335
    149 C51        -4.7530    5.4760    2.6050 c3        1 MOL     -0.022937
    150 C52        -4.7000    5.2030    4.0820 c         1 MOL      0.660499
    151 O22        -4.4870    6.0760    4.9110 o         1 MOL     -0.717007
    152 O23        -4.9900    4.0580    4.4360 o         1 MOL     -0.717007
    153 H65        -5.3770    4.7430   -0.6530 hn        1 MOL      0.304289
    154 H66        -3.7590    6.0890    0.1080 h1        1 MOL      0.063784
    155 H67        -2.6640    5.5450    2.2640 hc        1 MOL      0.068457
    156 H68        -3.2870    3.9080    2.1950 hc        1 MOL      0.068457
    157 H69        -5.6430    4.9450    2.2710 hc        1 MOL     -0.049001
    158 H70        -4.7790    6.5370    2.3900 hc        1 MOL     -0.049001
    159 N14        -1.7900    3.9280   -0.9350 n         1 MOL     -0.074484
    160 C53        -0.5620    3.8930   -1.8760 c3        1 MOL     -0.363083
    161 C54        -0.8030    4.7560   -3.1030 c         1 MOL      0.616827
    162 O24         0.1740    5.2290   -3.7300 o         1 MOL     -0.552291
    163 C55        -0.0870    2.4560   -2.0960 c3        1 MOL      0.024561
    164 C56         0.1490    1.6040   -0.8780 c3        1 MOL      0.650701
    165 C57         1.3620    2.1020   -0.0330 c         1 MOL      0.531767
    166 O25         1.2750    3.1500    0.6310 o         1 MOL     -0.612103
    167 O26         2.4170    1.4050   -0.0960 o         1 MOL     -0.612103
    168 H71        -2.2950    3.0630   -0.8080 hn        1 MOL      0.114675
    169 H72         0.2890    4.3460   -1.3710 h1        1 MOL      0.182134
    170 H73         0.8660    2.5330   -2.6190 hc        1 MOL     -0.002638
    171 H74        -0.7130    1.9290   -2.8140 hc        1 MOL     -0.002638
    172 H75         0.2780    0.5800   -1.2400 hc        1 MOL     -0.268759
    173 H76        -0.7370    1.6730   -0.2460 hc        1 MOL     -0.268759
    174 N15        -2.0870    4.8240   -3.4680 n         1 MOL     -0.286208
    175 C58        -2.6410    5.6610   -4.5270 c3        1 MOL     -0.221909
    176 H77        -3.5970    5.2500   -4.8510 h1        1 MOL      0.093323
    177 H78        -2.7910    6.6720   -4.1510 h1        1 MOL      0.093323
    178 H79        -1.9510    5.6840   -5.3710 h1        1 MOL      0.093323
    179 H80        -2.7800    4.4080   -2.8550 hn        1 MOL      0.212886
    180 Ca1         4.6460    1.8290    1.2230 Ca        1 MOL      1.699913
    181 O27         3.4390    4.2720    1.4980 oh        1 MOL     -0.848197
    182 H81         2.6220    3.8520    1.2410 ho        1 MOL      0.399999
    183 H82         3.2300    5.2060    1.5500 ho        1 MOL      0.399999
    184 O28         5.5910    2.9960    3.4930 oh        1 MOL     -0.848197
    185 H83         5.1980    3.2630    4.3210 ho        1 MOL      0.399999
    186 H84         6.2890    3.6320    3.3330 ho        1 MOL      0.399999
    187 O29         6.2270    0.0140    2.6840 oh        1 MOL     -0.848197
    188 H85         6.9350   -0.4710    2.2710 ho        1 MOL      0.399999
    189 H86         5.7400   -0.6420    3.1870 ho        1 MOL      0.399999
@<TRIPOS>BOND
     1    1    2 1   
     2    1    4 1   
     3    1    5 1   
     4    1    6 1   
     5    2    3 2   
     6    2    7 1   
     7    7    8 1   
     8    7   15 1   
     9    8    9 1   
    10    8   11 1   
    11    8   16 1   
    12    9   10 2   
    13    9   19 1   
    14   11   12 1   
    15   11   17 1   
    16   11   18 1   
    17   12   13 1   
    18   12   14 1   
    19   19   20 1   
    20   19   27 1   
    21   20   21 1   
    22   20   23 1   
    23   20   28 1   
    24   21   22 2   
    25   21   38 1   
    26   23   24 1   
    27   23   25 1   
    28   23   29 1   
    29   24   26 1   
    30   24   30 1   
    31   24   31 1   
    32   25   32 1   
    33   25   33 1   
    34   25   34 1   
    35   26   35 1   
    36   26   36 1   
    37   26   37 1   
    38   38   39 1   
    39   38   46 1   
    40   39   40 1   
    41   39   42 1   
    42   39   47 1   
    43   40   41 2   
    44   40   50 1   
    45   42   43 1   
    46   42   48 1   
    47   42   49 1   
    48   43   44 1   
    49   43   45 1   
    50   50   51 1   
    51   50   54 1   
    52   51   52 1   
    53   51   55 1   
    54   51   56 1   
    55   52   53 2   
    56   52   57 1   
    57   57   58 1   
    58   57   65 1   
    59   58   59 1   
    60   58   61 1   
    61   58   66 1   
    62   59   60 2   
    63   59   69 1   
    64   61   62 1   
    65   61   67 1   
    66   61   68 1   
    67   62   63 1   
    68   62   64 1   
    69   69   70 1   
    70   69   73 1   
    71   70   71 1   
    72   70   74 1   
    73   70   75 1   
    74   71   72 2   
    75   71   76 1   
    76   76   77 1   
    77   76   85 1   
    78   77   78 1   
    79   77   80 1   
    80   77   86 1   
    81   78   79 2   
    82   78   93 1   
    83   80   81 1   
    84   80   87 1   
    85   80   88 1   
    86   81   82 1   
    87   81   89 1   
    88   81   90 1   
    89   82   83 1   
    90   82   84 2   
    91   83   91 1   
    92   83   92 1   
    93   93   94 1   
    94   93  100 1   
    95   94   95 1   
    96   94   97 1   
    97   94  101 1   
    98   95   96 2   
    99   95  109 1   
   100   97   98 1   
   101   97   99 1   
   102   97  102 1   
   103   98  103 1   
   104   98  104 1   
   105   98  105 1   
   106   99  106 1   
   107   99  107 1   
   108   99  108 1   
   109  109  110 1   
   110  109  117 1   
   111  110  111 1   
   112  110  113 1   
   113  110  118 1   
   114  111  112 2   
   115  111  123 1   
   116  113  114 1   
   117  113  119 1   
   118  113  120 1   
   119  114  115 1   
   120  114  116 2   
   121  115  121 1   
   122  115  122 1   
   123  123  124 1   
   124  123  135 1   
   125  124  125 1   
   126  124  127 1   
   127  124  136 1   
   128  125  126 2   
   129  125  144 1   
   130  127  128 1   
   131  127  137 1   
   132  127  138 1   
   133  128  129 ar  
   134  128  130 ar  
   135  129  131 ar  
   136  129  139 1   
   137  130  132 ar  
   138  130  140 1   
   139  131  133 ar  
   140  131  141 1   
   141  132  133 ar  
   142  132  142 1   
   143  133  134 1   
   144  134  143 1   
   145  144  145 1   
   146  144  153 1   
   147  145  146 1   
   148  145  148 1   
   149  145  154 1   
   150  146  147 2   
   151  146  159 1   
   152  148  149 1   
   153  148  155 1   
   154  148  156 1   
   155  149  150 1   
   156  149  157 1   
   157  149  158 1   
   158  150  151 1   
   159  150  152 1   
   160  159  160 1   
   161  159  168 1   
   162  160  161 1   
   163  160  163 1   
   164  160  169 1   
   165  161  162 2   
   166  161  174 1   
   167  163  164 1   
   168  163  170 1   
   169  163  171 1   
   170  164  165 1   
   171  164  172 1   
   172  164  173 1   
   173  165  166 1   
   174  165  167 1   
   175  174  175 1   
   176  174  179 1   
   177  175  176 1   
   178  175  177 1   
   179  175  178 1   
   180  181  182 1   
   181  181  183 1   
   182  184  185 1   
   183  184  186 1   
   184  187  188 1   
   185  187  189 1   
@<TRIPOS>SUBSTRUCTURE
     1 MOL         1 TEMP              0 ****  ****    0 ROOT
