@<TRIPOS>MOLECULE
MOL
  181   177     1     0     0
SMALL
resp


@<TRIPOS>ATOM
      1 C1          4.5780   -7.6760    3.6830 c3        1 MOL     -0.082120
      2 C2          3.6920   -6.6940    2.8240 c         1 MOL      0.699468
      3 O1          2.4790   -6.7270    2.9080 o         1 MOL     -0.574917
      4 H1          4.2110   -7.6910    4.7100 hc        1 MOL     -0.001066
      5 H2          4.5200   -8.6810    3.2640 hc        1 MOL     -0.001066
      6 H3          5.6140   -7.3370    3.6730 hc        1 MOL     -0.001066
      7 N1          4.2860   -5.7440    2.1370 n         1 MOL     -0.719638
      8 C3          5.6740   -5.5300    1.7760 c3        1 MOL      0.364196
      9 C4          5.8810   -5.3620    0.2700 c         1 MOL      0.501129
     10 O2          4.9430   -5.3220   -0.5330 o         1 MOL     -0.440800
     11 C5          6.1990   -4.4430    2.5810 c3        1 MOL     -0.230942
     12 C6          5.9130   -3.0110    2.1140 c         1 MOL      0.517556
     13 O3          4.8800   -2.4360    2.4730 o         1 MOL     -0.575527
     14 O4          6.7950   -2.4570    1.4230 o         1 MOL     -0.575527
     15 H4          3.5910   -5.1220    1.7450 hn        1 MOL      0.379847
     16 H5          6.2420   -6.4490    1.8240 h1        1 MOL      0.004351
     17 H6          7.2770   -4.5850    2.7060 hc        1 MOL      0.027375
     18 H7          5.7410   -4.5470    3.5700 hc        1 MOL      0.027375
     19 N2          7.1620   -5.2360   -0.0550 n         1 MOL     -0.665482
     20 C7          7.7280   -5.1720   -1.4110 c3        1 MOL      0.403530
     21 C8          7.3360   -3.9800   -2.3240 c         1 MOL      0.118482
     22 O5          7.3900   -4.1020   -3.5890 o         1 MOL     -0.526985
     23 C9          7.7070   -6.5670   -2.0720 c3        1 MOL     -0.382689
     24 H8          7.8510   -5.1730    0.6770 hn        1 MOL      0.343230
     25 H9          8.7880   -5.0810   -1.1790 h1        1 MOL     -0.001316
     26 H10         8.3000   -6.6820   -2.9780 hc        1 MOL      0.101521
     27 H11         8.0850   -7.3970   -1.4720 hc        1 MOL      0.101521
     28 H12         6.6770   -6.8790   -2.2810 hc        1 MOL      0.101521
     29 N3          6.9110   -2.8350   -1.8030 n         1 MOL      0.316653
     30 C10         6.4300   -1.6790   -2.5700 c3        1 MOL     -0.109878
     31 C11         6.9520   -0.4460   -1.9170 c         1 MOL      0.351260
     32 O6          7.5090   -0.3970   -0.7900 o         1 MOL     -0.566628
     33 C12         4.8960   -1.6280   -2.7300 c3        1 MOL     -0.019145
     34 C13         4.0700   -1.6530   -1.4770 c         1 MOL      0.603126
     35 O7          2.8690   -1.9080   -1.3990 o         1 MOL     -0.636617
     36 O8          4.6490   -1.1960   -0.4600 o         1 MOL     -0.636617
     37 H13         7.0670   -2.8280   -0.8030 hn        1 MOL     -0.095373
     38 H14         6.8550   -1.7050   -3.5730 h1        1 MOL      0.051845
     39 H15         4.5670   -2.5260   -3.2440 hc        1 MOL      0.022956
     40 H16         4.6740   -0.7370   -3.3120 hc        1 MOL      0.022956
     41 N4          6.8270    0.6570   -2.5880 n         1 MOL     -0.283388
     42 C14         7.2750    1.9630   -2.1750 c3        1 MOL     -0.050304
     43 C15         6.3720    2.8310   -1.3980 c         1 MOL      0.477703
     44 O9          5.5770    2.3220   -0.5740 o         1 MOL     -0.570985
     45 H17         6.2790    0.5380   -3.4270 hn        1 MOL      0.289938
     46 H18         7.5460    2.4730   -3.1030 h1        1 MOL      0.073664
     47 H19         8.2470    1.9670   -1.6910 h1        1 MOL      0.073664
     48 N5          6.5350    4.1350   -1.6060 n         1 MOL     -0.536279
     49 C16         5.8580    5.1340   -0.7870 c3        1 MOL      0.340576
     50 C17         4.3330    4.9690   -0.6410 c         1 MOL      0.518990
     51 O10         3.6140    4.8580   -1.5970 o         1 MOL     -0.490653
     52 C18         6.3120    6.4440   -1.4480 c3        1 MOL     -0.177583
     53 C19         5.9200    7.7010   -0.7110 c         1 MOL      0.642758
     54 N6          6.8550    8.3260   -0.0320 n         1 MOL     -0.805788
     55 O11         4.7420    8.0160   -0.6920 o         1 MOL     -0.540502
     56 H20         7.2000    4.4180   -2.3130 hn        1 MOL      0.314081
     57 H21         6.3570    5.0430    0.1760 h1        1 MOL     -0.098788
     58 H22         5.7340    6.4120   -2.3790 hc        1 MOL      0.030996
     59 H23         7.3680    6.4340   -1.6990 hc        1 MOL      0.030996
     60 H24         7.7730    7.9090   -0.0650 hn        1 MOL      0.372384
     61 H25         6.6050    9.2400    0.3200 hn        1 MOL      0.372384
     62 N7          3.8580    5.2090    0.6140 n         1 MOL     -0.217653
     63 C20         2.4390    5.0670    0.9070 c3        1 MOL     -0.155426
     64 C21         2.1470    3.6130    1.2850 c         1 MOL      0.619164
     65 O12         2.8390    3.2000    2.2250 o         1 MOL     -0.516700
     66 H26         4.5910    5.3890    1.2890 hn        1 MOL      0.160657
     67 H27         1.8550    5.4020    0.0470 h1        1 MOL      0.093658
     68 H28         2.2500    5.6530    1.8070 h1        1 MOL      0.093658
     69 N8          1.1710    2.8590    0.6550 n         1 MOL     -0.568492
     70 C22         0.3520    3.3810   -0.5290 c3        1 MOL     -0.041003
     71 C23        -0.9300    4.0660   -0.0630 c         1 MOL      0.394194
     72 O13        -1.1260    5.2610   -0.3750 o         1 MOL     -0.494083
     73 C24         0.0510    2.2340   -1.5640 c3        1 MOL      0.320099
     74 C25         1.1950    2.0190   -2.4590 c3        1 MOL     -0.125035
     75 O14        -0.4300    1.0620   -0.9670 oh        1 MOL     -0.536240
     76 H29         1.1920    1.8680    0.8720 hn        1 MOL      0.393264
     77 H30         0.9440    4.1650   -1.0050 h1        1 MOL      0.116133
     78 H31        -0.7330    2.6580   -2.1950 h1        1 MOL      0.013829
     79 H32        -0.9220    0.7140   -1.7110 ho        1 MOL      0.382761
     80 H33         1.3680    2.9500   -3.0070 hc        1 MOL      0.031803
     81 H34         1.9940    1.6800   -1.8010 hc        1 MOL      0.031803
     82 H35         0.9890    1.2710   -3.2260 hc        1 MOL      0.031803
     83 N9         -1.8450    3.3370    0.6050 n         1 MOL     -0.159754
     84 C26        -3.1490    3.8700    1.0920 c3        1 MOL      0.131809
     85 C27        -3.9740    4.4410   -0.0620 c         1 MOL      0.587152
     86 O15        -3.9250    5.6570   -0.2740 o         1 MOL     -0.559527
     87 C28        -2.8760    4.9000    2.2550 c3        1 MOL      0.113187
     88 C29        -1.9300    4.3700    3.3830 c3        1 MOL     -0.014323
     89 C30        -4.2040    5.4440    2.9610 c3        1 MOL     -0.283352
     90 C31        -2.5660    3.2650    4.2420 c3        1 MOL     -0.299530
     91 H36        -1.6630    2.3550    0.7480 hn        1 MOL      0.155343
     92 H37        -3.7610    3.0590    1.4740 h1        1 MOL      0.033303
     93 H38        -2.3770    5.7330    1.7460 hc        1 MOL      0.002960
     94 H39        -1.5870    5.2090    3.9950 hc        1 MOL      0.004834
     95 H40        -0.9670    4.0160    3.0050 hc        1 MOL      0.004834
     96 H41        -4.7250    6.0100    2.1880 hc        1 MOL      0.060823
     97 H42        -4.8160    4.5830    3.2210 hc        1 MOL      0.060823
     98 H43        -3.8970    6.0020    3.8390 hc        1 MOL      0.060823
     99 H44        -3.3560    3.7210    4.8430 hc        1 MOL      0.074830
    100 H45        -3.1220    2.4980    3.7100 hc        1 MOL      0.074830
    101 H46        -1.8900    2.8580    4.9960 hc        1 MOL      0.074830
    102 N10        -4.5880    3.6670   -0.9700 n         1 MOL     -0.662213
    103 C32        -4.5900    2.1720   -1.1070 c3        1 MOL      0.296862
    104 C33        -5.5740    1.4460   -0.1920 c         1 MOL      0.525606
    105 O16        -5.0830    0.7300    0.6660 o         1 MOL     -0.551049
    106 C34        -4.5400    1.7840   -2.6450 c3        1 MOL     -0.079150
    107 C35        -5.6830    2.2660   -3.4870 c         1 MOL      0.711875
    108 O17        -5.6640    2.0550   -4.7250 o         1 MOL     -0.703879
    109 O18        -6.5200    3.0260   -2.9500 o         1 MOL     -0.703879
    110 H47        -4.8800    4.2210   -1.7680 hn        1 MOL      0.346337
    111 H48        -3.5660    1.8980   -0.8370 h1        1 MOL     -0.100159
    112 H49        -4.5690    0.6910   -2.7180 hc        1 MOL     -0.000019
    113 H50        -3.6310    2.0770   -3.1560 hc        1 MOL     -0.000019
    114 N11        -6.8620    1.4960   -0.4430 n         1 MOL     -0.561904
    115 C36        -7.9270    0.5640    0.0470 c3        1 MOL      0.430756
    116 C37        -8.7190   -0.0180   -1.0990 c         1 MOL      0.401013
    117 O19        -9.2840    0.7450   -1.8870 o         1 MOL     -0.499753
    118 C38        -8.7030    1.2870    1.1900 c3        1 MOL     -0.263644
    119 C39        -9.7540    0.3460    1.8570 ca        1 MOL      0.128576
    120 C40       -10.9960    0.0980    1.2200 ca        1 MOL     -0.222004
    121 C41        -9.4170   -0.3540    3.0840 ca        1 MOL     -0.222004
    122 C42       -11.9470   -0.6960    1.8890 ca        1 MOL     -0.039469
    123 C43       -10.3220   -1.2320    3.6030 ca        1 MOL     -0.039469
    124 C44       -11.6200   -1.3100    3.1260 ca        1 MOL     -0.206516
    125 H51        -7.0050    1.8040   -1.3920 hn        1 MOL      0.249865
    126 H52        -7.3700   -0.2400    0.5240 h1        1 MOL     -0.070685
    127 H53        -9.1950    2.2170    0.9000 hc        1 MOL      0.099758
    128 H54        -7.9980    1.7240    1.9050 hc        1 MOL      0.099758
    129 H55       -11.3080    0.5380    0.2780 ha        1 MOL      0.130934
    130 H56        -8.4960   -0.1200    3.6080 ha        1 MOL      0.130934
    131 H57       -12.9310   -0.9040    1.5120 ha        1 MOL      0.084905
    132 H58       -10.1540   -1.7850    4.5190 ha        1 MOL      0.084905
    133 H59       -12.3530   -1.8960    3.6710 ha        1 MOL      0.109366
    134 N12        -8.9560   -1.3490   -1.1460 n         1 MOL     -0.133685
    135 C45        -8.1480   -2.3880   -0.3870 c3        1 MOL      0.033595
    136 C46        -6.6970   -2.3530   -0.8230 c         1 MOL      0.435623
    137 O20        -6.2960   -1.8020   -1.7880 o         1 MOL     -0.435788
    138 C47        -8.8150   -3.6950   -0.8470 c3        1 MOL     -0.155522
    139 C48        -9.1530   -3.4710   -2.3330 c3        1 MOL     -0.027769
    140 C49        -9.6560   -2.0390   -2.2320 c3        1 MOL      0.001032
    141 H60        -8.2010   -2.3580    0.7050 h1        1 MOL      0.011404
    142 H61        -8.1210   -4.5160   -0.6730 hc        1 MOL      0.045884
    143 H62        -9.7140   -3.7790   -0.2260 hc        1 MOL      0.045884
    144 H63        -8.2620   -3.5620   -2.9590 hc        1 MOL      0.044062
    145 H64        -9.8750   -4.2470   -2.5920 hc        1 MOL      0.044062
    146 H65        -9.7170   -1.5280   -3.1930 h1        1 MOL      0.046136
    147 H66       -10.7170   -2.1110   -2.0010 h1        1 MOL      0.046136
    148 N13        -5.8110   -3.0080   -0.0710 n         1 MOL     -0.175024
    149 C50        -4.3420   -2.9670   -0.1260 c3        1 MOL      0.094649
    150 C51        -3.7410   -3.6870    1.0840 c         1 MOL      0.378268
    151 O21        -2.9960   -4.6610    0.9900 o         1 MOL     -0.497755
    152 C52        -3.7100   -3.4910   -1.4290 c3        1 MOL      0.049060
    153 C53        -4.0790   -4.9340   -1.8890 c3        1 MOL     -0.212978
    154 C54        -3.1220   -5.4180   -2.9710 c         1 MOL      0.673299
    155 O22        -2.1610   -6.1930   -2.7070 o         1 MOL     -0.642664
    156 O23        -3.2160   -4.9900   -4.1140 o         1 MOL     -0.642664
    157 H67        -6.1770   -3.6700    0.5950 hn        1 MOL      0.163040
    158 H68        -4.0870   -1.9180   -0.0270 h1        1 MOL      0.013220
    159 H69        -2.6350   -3.3220   -1.3440 hc        1 MOL      0.034737
    160 H70        -4.0340   -2.7760   -2.1820 hc        1 MOL      0.034737
    161 H71        -5.1450   -4.9920   -2.1080 hc        1 MOL      0.014074
    162 H72        -4.0070   -5.6310   -1.0580 hc        1 MOL      0.014074
    163 N14        -4.1350   -3.3790    2.3000 n         1 MOL     -0.298546
    164 C55        -5.0200   -2.3690    2.9230 c3        1 MOL      0.039685
    165 H73        -4.4970   -1.8880    3.7500 h1        1 MOL      0.017386
    166 H74        -5.2930   -1.6180    2.1810 h1        1 MOL      0.017386
    167 H75        -5.9200   -2.8550    3.2970 h1        1 MOL      0.017386
    168 H76        -3.7390   -4.0280    2.9650 hn        1 MOL      0.235046
    169 Ca1         5.8680    0.0310    1.3170 Ca        1 MOL      1.692374
    170 O24         3.6810    0.2890    2.9740 oh        1 MOL     -0.776859
    171 H77         3.2530    0.3040    3.8340 ho        1 MOL      0.353687
    172 H78         2.9590    0.2310    2.3480 ho        1 MOL      0.353687
    173 O25         8.3250    0.9990    2.0750 oh        1 MOL     -0.776859
    174 H79         8.3250    1.6940    2.7350 ho        1 MOL      0.353687
    175 H80         9.1620    0.5600    2.1930 ho        1 MOL      0.353687
    176 O26         5.5470    2.6300    2.1810 oh        1 MOL     -0.776859
    177 H81         4.7030    3.0750    2.1460 ho        1 MOL      0.353687
    178 H82         6.1020    3.2220    2.6970 ho        1 MOL      0.353687
    179 O27         6.3890    0.0610    4.0570 oh        1 MOL     -0.776859
    180 H83         6.8350    0.9020    4.1670 ho        1 MOL      0.353687
    181 H84         5.8470   -0.0280    4.8450 ho        1 MOL      0.353687
@<TRIPOS>BOND
     1    1    2 1   
     2    1    4 1   
     3    1    5 1   
     4    1    6 1   
     5    2    3 2   
     6    2    7 1   
     7    7    8 1   
     8    7   15 1   
     9    8    9 1   
    10    8   11 1   
    11    8   16 1   
    12    9   10 2   
    13    9   19 1   
    14   11   12 1   
    15   11   17 1   
    16   11   18 1   
    17   12   13 1   
    18   12   14 1   
    19   19   20 1   
    20   19   24 1   
    21   20   21 1   
    22   20   23 1   
    23   20   25 1   
    24   21   22 2   
    25   21   29 1   
    26   23   26 1   
    27   23   27 1   
    28   23   28 1   
    29   29   30 1   
    30   29   37 1   
    31   30   31 1   
    32   30   33 1   
    33   30   38 1   
    34   31   32 2   
    35   31   41 1   
    36   33   34 1   
    37   33   39 1   
    38   33   40 1   
    39   34   35 1   
    40   34   36 1   
    41   41   42 1   
    42   41   45 1   
    43   42   43 1   
    44   42   46 1   
    45   42   47 1   
    46   43   44 2   
    47   43   48 1   
    48   48   49 1   
    49   48   56 1   
    50   49   50 1   
    51   49   52 1   
    52   49   57 1   
    53   50   51 2   
    54   50   62 1   
    55   52   53 1   
    56   52   58 1   
    57   52   59 1   
    58   53   54 1   
    59   53   55 2   
    60   54   60 1   
    61   54   61 1   
    62   62   63 1   
    63   62   66 1   
    64   63   64 1   
    65   63   67 1   
    66   63   68 1   
    67   64   65 2   
    68   64   69 1   
    69   69   70 1   
    70   69   76 1   
    71   70   71 1   
    72   70   73 1   
    73   70   77 1   
    74   71   72 2   
    75   71   83 1   
    76   73   74 1   
    77   73   75 1   
    78   73   78 1   
    79   74   80 1   
    80   74   81 1   
    81   74   82 1   
    82   75   79 1   
    83   83   84 1   
    84   83   91 1   
    85   84   85 1   
    86   84   87 1   
    87   84   92 1   
    88   85   86 2   
    89   85  102 1   
    90   87   88 1   
    91   87   89 1   
    92   87   93 1   
    93   88   90 1   
    94   88   94 1   
    95   88   95 1   
    96   89   96 1   
    97   89   97 1   
    98   89   98 1   
    99   90   99 1   
   100   90  100 1   
   101   90  101 1   
   102  102  103 1   
   103  102  110 1   
   104  103  104 1   
   105  103  106 1   
   106  103  111 1   
   107  104  105 2   
   108  104  114 1   
   109  106  107 1   
   110  106  112 1   
   111  106  113 1   
   112  107  108 1   
   113  107  109 1   
   114  114  115 1   
   115  114  125 1   
   116  115  116 1   
   117  115  118 1   
   118  115  126 1   
   119  116  117 2   
   120  116  134 1   
   121  118  119 1   
   122  118  127 1   
   123  118  128 1   
   124  119  120 ar  
   125  119  121 ar  
   126  120  122 ar  
   127  120  129 1   
   128  121  123 ar  
   129  121  130 1   
   130  122  124 ar  
   131  122  131 1   
   132  123  124 ar  
   133  123  132 1   
   134  124  133 1   
   135  134  135 1   
   136  134  140 1   
   137  135  136 1   
   138  135  138 1   
   139  135  141 1   
   140  136  137 2   
   141  136  148 1   
   142  138  139 1   
   143  138  142 1   
   144  138  143 1   
   145  139  140 1   
   146  139  144 1   
   147  139  145 1   
   148  140  146 1   
   149  140  147 1   
   150  148  149 1   
   151  148  157 1   
   152  149  150 1   
   153  149  152 1   
   154  149  158 1   
   155  150  151 2   
   156  150  163 1   
   157  152  153 1   
   158  152  159 1   
   159  152  160 1   
   160  153  154 1   
   161  153  161 1   
   162  153  162 1   
   163  154  155 1   
   164  154  156 1   
   165  163  164 1   
   166  163  168 1   
   167  164  165 1   
   168  164  166 1   
   169  164  167 1   
   170  170  171 1   
   171  170  172 1   
   172  173  174 1   
   173  173  175 1   
   174  176  177 1   
   175  176  178 1   
   176  179  180 1   
   177  179  181 1   
@<TRIPOS>SUBSTRUCTURE
     1 MOL         1 TEMP              0 ****  ****    0 ROOT
