@<TRIPOS>MOLECULE
MOL
  189   185     1     0     0
SMALL
resp


@<TRIPOS>ATOM
      1 C1         -3.9210   -4.4480   -4.0460 c3        1 MOL     -0.266378
      2 C2         -4.5370   -3.7780   -2.7760 c         1 MOL      0.651113
      3 O1         -3.7880   -3.4010   -1.8250 o         1 MOL     -0.591250
      4 H1         -4.6740   -5.0690   -4.5310 hc        1 MOL      0.070598
      5 H2         -3.5870   -3.6750   -4.7390 hc        1 MOL      0.070598
      6 H3         -3.0730   -5.0670   -3.7550 hc        1 MOL      0.070598
      7 N1         -5.8230   -3.5670   -2.7660 n         1 MOL     -0.514902
      8 C3         -6.6200   -2.6860   -1.8510 c3        1 MOL      0.109870
      9 C4         -5.8880   -1.3300   -1.6250 c         1 MOL      0.358264
     10 O2         -5.4450   -1.0100   -0.5300 o         1 MOL     -0.537035
     11 C5         -7.1580   -3.4180   -0.6280 c3        1 MOL     -0.184884
     12 C6         -6.4390   -4.6300   -0.0670 c         1 MOL      0.662225
     13 O3         -5.2930   -4.5180    0.5050 o         1 MOL     -0.688640
     14 O4         -7.0300   -5.7290   -0.1070 o         1 MOL     -0.688640
     15 H4         -6.2570   -3.6860   -3.6660 hn        1 MOL      0.285149
     16 H5         -7.4970   -2.4550   -2.4490 h1        1 MOL      0.064075
     17 H6         -8.1680   -3.7910   -0.8050 hc        1 MOL      0.064362
     18 H7         -7.3460   -2.6670    0.1500 hc        1 MOL      0.064362
     19 N2         -5.5970   -0.6630   -2.7470 n         1 MOL     -0.329560
     20 C7         -5.2090    0.7700   -2.9020 c3        1 MOL      0.044415
     21 C8         -6.1620    1.7960   -2.1440 c         1 MOL      0.330695
     22 O5         -6.7000    2.6860   -2.8170 o         1 MOL     -0.539159
     23 C9         -3.6770    0.9280   -2.6020 c3        1 MOL      0.212402
     24 C10        -3.1130    2.3910   -2.7140 c3        1 MOL     -0.331342
     25 C11        -2.8880   -0.0610   -3.5300 c3        1 MOL     -0.069647
     26 C12        -3.0900    2.9860   -4.1540 c3        1 MOL     -0.089388
     27 H8         -5.9230   -1.0170   -3.6250 hn        1 MOL      0.223271
     28 H9         -5.2740    1.1010   -3.9430 h1        1 MOL      0.047979
     29 H10        -3.5730    0.5770   -1.5770 hc        1 MOL     -0.078069
     30 H11        -2.1100    2.5280   -2.3160 hc        1 MOL      0.161968
     31 H12        -3.7920    3.0310   -2.1460 hc        1 MOL      0.161968
     32 H13        -3.1150   -1.1220   -3.4250 hc        1 MOL      0.001115
     33 H14        -2.9800    0.1630   -4.6010 hc        1 MOL      0.001115
     34 H15        -1.8570   -0.0820   -3.1670 hc        1 MOL      0.001115
     35 H16        -4.1030    2.9920   -4.5580 hc        1 MOL      0.017171
     36 H17        -2.6590    3.9790   -4.2980 hc        1 MOL      0.017171
     37 H18        -2.5040    2.3330   -4.8010 hc        1 MOL      0.017171
     38 N3         -6.3450    1.7700   -0.8360 n         1 MOL     -0.063573
     39 C13        -7.2370    2.6330   -0.0290 c3        1 MOL      0.012609
     40 C14        -6.7770    4.1140    0.0640 c         1 MOL      0.613106
     41 O6         -7.5290    4.9190   -0.3970 o         1 MOL     -0.556976
     42 C15        -7.6250    1.9140    1.2760 c3        1 MOL     -0.404092
     43 C16        -8.1490    0.4700    1.1330 c         1 MOL      0.803089
     44 O7         -9.0220    0.1290    0.2560 o         1 MOL     -0.710186
     45 O8         -7.7840   -0.3830    1.9760 o         1 MOL     -0.710186
     46 H19        -5.7560    1.1060   -0.3570 hn        1 MOL      0.199777
     47 H20        -8.1830    2.6030   -0.5720 h1        1 MOL      0.051208
     48 H21        -8.2540    2.5290    1.9190 hc        1 MOL      0.100495
     49 H22        -6.7600    1.8710    1.9330 hc        1 MOL      0.100495
     50 N4         -5.5280    4.4280    0.4920 n         1 MOL     -0.598410
     51 C17        -4.3640    3.5340    0.8360 c3        1 MOL      0.296696
     52 C18        -3.4840    4.1220    1.9120 c         1 MOL      0.409336
     53 O9         -3.5120    5.3180    2.1720 o         1 MOL     -0.556189
     54 H23        -5.4270    5.4180    0.6330 hn        1 MOL      0.283736
     55 H24        -3.7220    3.4740   -0.0450 h1        1 MOL     -0.010085
     56 H25        -4.7220    2.5460    1.1150 h1        1 MOL     -0.010085
     57 N5         -2.8450    3.4060    2.8480 n         1 MOL     -0.168015
     58 C19        -2.9260    1.9630    3.1050 c3        1 MOL     -0.053071
     59 C20        -2.6800    1.1220    1.8490 c         1 MOL     -0.026209
     60 O10        -3.5550    0.4920    1.3690 o         1 MOL     -0.359302
     61 C21        -4.1400    1.6020    3.8810 c3        1 MOL     -0.108697
     62 C22        -4.0620    0.2120    4.4780 c         1 MOL      0.616216
     63 O11        -5.1600   -0.3060    4.8590 o         1 MOL     -0.651727
     64 O12        -2.9730   -0.3430    4.6260 o         1 MOL     -0.651727
     65 H26        -2.4300    4.0030    3.5520 hn        1 MOL      0.181158
     66 H27        -2.0400    1.6720    3.6630 h1        1 MOL      0.108862
     67 H28        -5.0560    1.7140    3.3010 hc        1 MOL      0.047379
     68 H29        -4.3450    2.3530    4.6420 hc        1 MOL      0.047379
     69 N6         -1.5270    1.0030    1.2280 n         1 MOL      0.043698
     70 C23        -0.2220    1.6510    1.6000 c3        1 MOL     -0.049494
     71 C24         0.0810    2.8240    0.6220 c         1 MOL      0.472500
     72 O13        -0.7080    3.1620   -0.2350 o         1 MOL     -0.519594
     73 H30        -1.5440    0.2470    0.5580 hn        1 MOL      0.132442
     74 H31         0.5720    0.9060    1.4810 h1        1 MOL      0.032239
     75 H32        -0.2830    2.1320    2.5820 h1        1 MOL      0.032239
     76 N7          1.2730    3.4310    0.8060 n         1 MOL     -0.399156
     77 C25         1.6610    4.7380    0.2110 c3        1 MOL     -0.042513
     78 C26         2.3030    4.5680   -1.1370 c         1 MOL      0.352292
     79 O14         2.4430    5.5370   -1.8470 o         1 MOL     -0.494443
     80 C27         2.5530    5.4690    1.1700 c3        1 MOL      0.033269
     81 C28         1.8930    6.0010    2.4730 c3        1 MOL     -0.243833
     82 C29         0.4490    6.5650    2.4060 c         1 MOL      0.634319
     83 N8         -0.5200    5.7860    2.7460 n         1 MOL     -0.686987
     84 O15         0.1740    7.6400    1.9730 o         1 MOL     -0.551389
     85 H33         1.9960    2.9530    1.3290 hn        1 MOL      0.266419
     86 H34         0.7140    5.2650    0.0350 h1        1 MOL      0.202560
     87 H35         3.0480    6.2330    0.5700 hc        1 MOL      0.040036
     88 H36         3.3610    4.7950    1.4630 hc        1 MOL      0.040036
     89 H37         2.4410    6.8130    2.9410 hc        1 MOL      0.046957
     90 H38         1.8730    5.2420    3.2500 hc        1 MOL      0.046957
     91 H39        -0.3420    4.8870    3.1790 hn        1 MOL      0.325228
     92 H40        -1.4920    5.9530    2.5600 hn        1 MOL      0.325228
     93 N9          2.6510    3.3430   -1.6010 n         1 MOL     -0.098969
     94 C30         3.0800    2.9890   -3.0590 c3        1 MOL     -0.380269
     95 C31         4.3710    2.1570   -3.1540 c         1 MOL      0.574500
     96 O16         4.8150    1.6440   -4.2050 o         1 MOL     -0.520246
     97 C32         1.9950    2.1760   -3.8370 c3        1 MOL      0.305352
     98 C33         0.7720    3.0250   -4.1470 c3        1 MOL     -0.245689
     99 C34         1.4940    0.9570   -3.0160 c3        1 MOL     -0.245689
    100 H41         2.5680    2.5840   -0.9340 hn        1 MOL      0.124403
    101 H42         3.1910    3.9360   -3.5960 h1        1 MOL      0.188549
    102 H43         2.4250    1.7470   -4.7430 hc        1 MOL     -0.002997
    103 H44         0.9520    3.6270   -5.0370 hc        1 MOL      0.059303
    104 H45        -0.0580    2.3510   -4.3490 hc        1 MOL      0.059303
    105 H46         0.4150    3.5100   -3.2370 hc        1 MOL      0.059303
    106 H47         0.8200    0.4240   -3.6840 hc        1 MOL      0.059303
    107 H48         2.3760    0.3350   -2.8600 hc        1 MOL      0.059303
    108 H49         1.0000    1.3300   -2.1180 hc        1 MOL      0.059303
    109 N10         5.1610    2.1200   -2.0500 n         1 MOL     -0.426231
    110 C35         6.4660    1.4970   -2.0470 c3        1 MOL      0.020169
    111 C36         6.5640    0.1750   -1.3050 c         1 MOL      0.744595
    112 O17         7.2900   -0.7070   -1.6790 o         1 MOL     -0.577940
    113 C37         7.5250    2.4830   -1.4500 c3        1 MOL     -0.327938
    114 C38         7.6540    3.7720   -2.1090 c         1 MOL      0.709813
    115 N11         7.6440    3.7830   -3.4210 n         1 MOL     -0.779757
    116 O18         7.8490    4.8320   -1.5150 o         1 MOL     -0.585593
    117 H50         4.9710    2.5210   -1.1380 hn        1 MOL      0.268862
    118 H51         6.7870    1.2060   -3.0480 h1        1 MOL      0.064256
    119 H52         8.5050    2.0410   -1.6240 hc        1 MOL      0.108780
    120 H53         7.3670    2.7320   -0.3960 hc        1 MOL      0.108780
    121 H54         7.4300    2.9420   -3.9470 hn        1 MOL      0.361433
    122 H55         7.8790    4.6450   -3.9000 hn        1 MOL      0.361433
    123 N12         5.8260   -0.0020   -0.1800 n         1 MOL     -0.670635
    124 C39         6.0220   -1.1360    0.7360 c3        1 MOL      0.188032
    125 C40         4.8020   -2.0830    0.8430 c         1 MOL      0.600981
    126 O19         3.6490   -1.7300    0.7470 o         1 MOL     -0.517031
    127 C41         6.4400   -0.6450    2.0720 c3        1 MOL     -0.078147
    128 C42         7.9230   -0.3340    1.9620 ca        1 MOL     -0.024328
    129 C43         8.9190   -1.3760    1.7630 ca        1 MOL     -0.076389
    130 C44         8.3940    1.0100    2.0910 ca        1 MOL     -0.076389
    131 C45        10.3120   -1.0780    1.7210 ca        1 MOL     -0.360584
    132 C46         9.7950    1.3170    1.9890 ca        1 MOL     -0.360584
    133 C47        10.7210    0.3000    1.7230 ca        1 MOL      0.437253
    134 O20        12.0330    0.5170    1.5150 oh        1 MOL     -0.528232
    135 H56         5.1520    0.7060    0.0780 hn        1 MOL      0.302868
    136 H57         6.8390   -1.6750    0.2610 h1        1 MOL      0.038446
    137 H58         6.3030   -1.3910    2.8560 hc        1 MOL      0.076476
    138 H59         5.9000    0.2160    2.4540 hc        1 MOL      0.076476
    139 H60         8.5480   -2.3890    1.6960 ha        1 MOL      0.112954
    140 H61         7.6360    1.7620    2.2500 ha        1 MOL      0.112954
    141 H62        10.9760   -1.8770    1.4240 ha        1 MOL      0.165892
    142 H63        10.1240    2.3490    1.9500 ha        1 MOL      0.165892
    143 H64        12.5250   -0.2960    1.5190 ho        1 MOL      0.374251
    144 N13         5.1410   -3.3940    1.0410 n         1 MOL     -0.684814
    145 C48         4.1980   -4.5270    1.3660 c3        1 MOL      0.114130
    146 C49         3.2230   -4.8990    0.3010 c         1 MOL      0.283783
    147 O21         2.6680   -5.9910    0.3860 o         1 MOL     -0.508052
    148 C50         3.4850   -4.4040    2.7140 c3        1 MOL      0.162996
    149 C51         4.3510   -4.0540    3.9120 c3        1 MOL     -0.249616
    150 C52         3.5230   -4.0290    5.1980 c         1 MOL      0.682459
    151 O22         3.6130   -5.0220    5.9720 o         1 MOL     -0.721353
    152 O23         2.7250   -3.1060    5.3910 o         1 MOL     -0.721353
    153 H65         6.1110   -3.6500    1.0110 hn        1 MOL      0.329475
    154 H66         4.8500   -5.4000    1.4150 h1        1 MOL      0.062757
    155 H67         3.0000   -5.3540    2.9200 hc        1 MOL      0.029674
    156 H68         2.7110   -3.6500    2.5810 hc        1 MOL      0.029674
    157 H69         4.7450   -3.0520    3.7010 hc        1 MOL     -0.001507
    158 H70         5.1800   -4.7510    4.0320 hc        1 MOL     -0.001507
    159 N14         3.0660   -4.1180   -0.7380 n         1 MOL     -0.223263
    160 C53         2.0400   -4.3820   -1.7770 c3        1 MOL     -0.023781
    161 C54         2.4830   -5.1590   -3.0150 c         1 MOL      0.479393
    162 O24         1.5770   -5.7110   -3.6470 o         1 MOL     -0.529307
    163 C55         1.2670   -3.0830   -2.1870 c3        1 MOL     -0.197798
    164 C56         0.7200   -2.1260   -1.0810 c3        1 MOL      0.552234
    165 C57        -0.6920   -2.5370   -0.5770 c         1 MOL      0.374956
    166 O25        -1.5980   -1.7090   -0.3720 o         1 MOL     -0.591083
    167 O26        -0.8400   -3.6540   -0.0790 o         1 MOL     -0.591083
    168 H71         3.5250   -3.2180   -0.7390 hn        1 MOL      0.220633
    169 H72         1.3400   -5.1120   -1.3700 h1        1 MOL      0.132526
    170 H73         0.4010   -3.4190   -2.7640 hc        1 MOL      0.023369
    171 H74         1.9020   -2.4730   -2.8400 hc        1 MOL      0.023369
    172 H75         0.7300   -1.0880   -1.4200 hc        1 MOL     -0.125145
    173 H76         1.4410   -2.0470   -0.2510 hc        1 MOL     -0.125145
    174 N15         3.7600   -5.0920   -3.3370 n         1 MOL     -0.290760
    175 C58         4.3510   -5.8800   -4.4700 c3        1 MOL     -0.111443
    176 H77         3.5670   -6.4630   -4.9540 h1        1 MOL      0.069249
    177 H78         4.7960   -5.1980   -5.1940 h1        1 MOL      0.069249
    178 H79         5.1170   -6.5530   -4.0850 h1        1 MOL      0.069249
    179 H80         4.4310   -4.6210   -2.7440 hn        1 MOL      0.224807
    180 Ca1        -3.5460   -2.5990    0.8110 Ca        1 MOL      1.761924
    181 O27        -5.3810   -1.5770    2.4000 oh        1 MOL     -0.898698
    182 H81        -5.9960   -0.9250    2.0750 ho        1 MOL      0.426620
    183 H82        -5.1330   -1.2520    3.2680 ho        1 MOL      0.426620
    184 O28        -2.8160   -4.9610    1.9700 oh        1 MOL     -0.898698
    185 H83        -2.9530   -5.0900    2.9090 ho        1 MOL      0.426620
    186 H84        -1.9260   -5.2600    1.8110 ho        1 MOL      0.426620
    187 O29        -1.9890   -2.0450    2.8910 oh        1 MOL     -0.898698
    188 H85        -2.2090   -1.3800    3.5420 ho        1 MOL      0.426620
    189 H86        -1.2270   -2.4930    3.2670 ho        1 MOL      0.426620
@<TRIPOS>BOND
     1    1    2 1   
     2    1    4 1   
     3    1    5 1   
     4    1    6 1   
     5    2    3 2   
     6    2    7 1   
     7    7    8 1   
     8    7   15 1   
     9    8    9 1   
    10    8   11 1   
    11    8   16 1   
    12    9   10 2   
    13    9   19 1   
    14   11   12 1   
    15   11   17 1   
    16   11   18 1   
    17   12   13 1   
    18   12   14 1   
    19   19   20 1   
    20   19   27 1   
    21   20   21 1   
    22   20   23 1   
    23   20   28 1   
    24   21   22 2   
    25   21   38 1   
    26   23   24 1   
    27   23   25 1   
    28   23   29 1   
    29   24   26 1   
    30   24   30 1   
    31   24   31 1   
    32   25   32 1   
    33   25   33 1   
    34   25   34 1   
    35   26   35 1   
    36   26   36 1   
    37   26   37 1   
    38   38   39 1   
    39   38   46 1   
    40   39   40 1   
    41   39   42 1   
    42   39   47 1   
    43   40   41 2   
    44   40   50 1   
    45   42   43 1   
    46   42   48 1   
    47   42   49 1   
    48   43   44 1   
    49   43   45 1   
    50   50   51 1   
    51   50   54 1   
    52   51   52 1   
    53   51   55 1   
    54   51   56 1   
    55   52   53 2   
    56   52   57 1   
    57   57   58 1   
    58   57   65 1   
    59   58   59 1   
    60   58   61 1   
    61   58   66 1   
    62   59   60 2   
    63   59   69 1   
    64   61   62 1   
    65   61   67 1   
    66   61   68 1   
    67   62   63 1   
    68   62   64 1   
    69   69   70 1   
    70   69   73 1   
    71   70   71 1   
    72   70   74 1   
    73   70   75 1   
    74   71   72 2   
    75   71   76 1   
    76   76   77 1   
    77   76   85 1   
    78   77   78 1   
    79   77   80 1   
    80   77   86 1   
    81   78   79 2   
    82   78   93 1   
    83   80   81 1   
    84   80   87 1   
    85   80   88 1   
    86   81   82 1   
    87   81   89 1   
    88   81   90 1   
    89   82   83 1   
    90   82   84 2   
    91   83   91 1   
    92   83   92 1   
    93   93   94 1   
    94   93  100 1   
    95   94   95 1   
    96   94   97 1   
    97   94  101 1   
    98   95   96 2   
    99   95  109 1   
   100   97   98 1   
   101   97   99 1   
   102   97  102 1   
   103   98  103 1   
   104   98  104 1   
   105   98  105 1   
   106   99  106 1   
   107   99  107 1   
   108   99  108 1   
   109  109  110 1   
   110  109  117 1   
   111  110  111 1   
   112  110  113 1   
   113  110  118 1   
   114  111  112 2   
   115  111  123 1   
   116  113  114 1   
   117  113  119 1   
   118  113  120 1   
   119  114  115 1   
   120  114  116 2   
   121  115  121 1   
   122  115  122 1   
   123  123  124 1   
   124  123  135 1   
   125  124  125 1   
   126  124  127 1   
   127  124  136 1   
   128  125  126 2   
   129  125  144 1   
   130  127  128 1   
   131  127  137 1   
   132  127  138 1   
   133  128  129 ar  
   134  128  130 ar  
   135  129  131 ar  
   136  129  139 1   
   137  130  132 ar  
   138  130  140 1   
   139  131  133 ar  
   140  131  141 1   
   141  132  133 ar  
   142  132  142 1   
   143  133  134 1   
   144  134  143 1   
   145  144  145 1   
   146  144  153 1   
   147  145  146 1   
   148  145  148 1   
   149  145  154 1   
   150  146  147 2   
   151  146  159 1   
   152  148  149 1   
   153  148  155 1   
   154  148  156 1   
   155  149  150 1   
   156  149  157 1   
   157  149  158 1   
   158  150  151 1   
   159  150  152 1   
   160  159  160 1   
   161  159  168 1   
   162  160  161 1   
   163  160  163 1   
   164  160  169 1   
   165  161  162 2   
   166  161  174 1   
   167  163  164 1   
   168  163  170 1   
   169  163  171 1   
   170  164  165 1   
   171  164  172 1   
   172  164  173 1   
   173  165  166 1   
   174  165  167 1   
   175  174  175 1   
   176  174  179 1   
   177  175  176 1   
   178  175  177 1   
   179  175  178 1   
   180  181  182 1   
   181  181  183 1   
   182  184  185 1   
   183  184  186 1   
   184  187  188 1   
   185  187  189 1   
@<TRIPOS>SUBSTRUCTURE
     1 MOL         1 TEMP              0 ****  ****    0 ROOT
