@<TRIPOS>MOLECULE
MOL
  178   175     1     0     0
SMALL
resp


@<TRIPOS>ATOM
      1 C1          2.2510   -0.9980    5.5230 c3        1 MOL     -0.379484
      2 C2          3.2780   -0.8080    4.4060 c         1 MOL      0.745709
      3 O1          3.1940    0.0420    3.5920 o         1 MOL     -0.573223
      4 H1          1.2470   -0.9970    5.0960 hc        1 MOL      0.080303
      5 H2          2.4310   -1.9490    6.0250 hc        1 MOL      0.080303
      6 H3          2.3410   -0.1850    6.2430 hc        1 MOL      0.080303
      7 N1          4.3220   -1.6390    4.5620 n         1 MOL     -0.584970
      8 C3          5.5440   -1.4850    3.7660 c3        1 MOL      0.139573
      9 C4          5.6430   -2.3710    2.5040 c         1 MOL      0.539481
     10 O2          6.3930   -2.0950    1.6060 o         1 MOL     -0.481086
     11 C5          6.7550   -1.6960    4.6370 c3        1 MOL     -0.198238
     12 C6          8.1580   -1.4150    4.0240 c         1 MOL      0.704815
     13 O3          8.8820   -2.4000    3.8500 o         1 MOL     -0.712514
     14 O4          8.4420   -0.2330    3.7650 o         1 MOL     -0.712514
     15 H4          4.2670   -2.4280    5.1810 hn        1 MOL      0.308753
     16 H5          5.6700   -0.4460    3.4510 h1        1 MOL      0.112126
     17 H6          6.5250   -2.6930    4.9950 hc        1 MOL     -0.010030
     18 H7          6.5990   -0.9900    5.4570 hc        1 MOL     -0.010030
     19 N2          4.7790   -3.3590    2.3030 n         1 MOL     -0.368362
     20 C7          4.6280   -4.1250    1.1020 c3        1 MOL      0.048136
     21 C8          4.4480   -3.2830   -0.1680 c         1 MOL      0.460612
     22 O5          3.3810   -2.7260   -0.3730 o         1 MOL     -0.524369
     23 C9          5.7300   -5.2190    0.9940 c3        1 MOL     -0.499805
     24 H8          4.0790   -3.5610    3.0020 hn        1 MOL      0.232334
     25 H9          3.7270   -4.7070    1.2690 h1        1 MOL      0.156322
     26 H10         5.8260   -5.7590    0.0580 hc        1 MOL      0.129234
     27 H11         6.6720   -4.6810    1.0810 hc        1 MOL      0.129234
     28 H12         5.5060   -5.9640    1.7660 hc        1 MOL      0.129234
     29 N3          5.5050   -3.1460   -0.9880 n         1 MOL     -0.412970
     30 C10         5.4910   -2.3440   -2.1720 c3        1 MOL      0.277689
     31 C11         5.9370   -0.8520   -1.9210 c         1 MOL      0.343690
     32 O6          6.3040   -0.0610   -2.8060 o         1 MOL     -0.467765
     33 C12         6.2990   -3.0360   -3.2280 c3        1 MOL     -0.195584
     34 C13         6.2610   -2.4910   -4.6650 c         1 MOL      0.654342
     35 O7          5.2950   -1.7570   -5.0030 o         1 MOL     -0.701966
     36 O8          7.0900   -2.9010   -5.5040 o         1 MOL     -0.701966
     37 H13         6.3950   -3.5990   -0.8260 hn        1 MOL      0.278771
     38 H14         4.4260   -2.3670   -2.3960 h1        1 MOL      0.051582
     39 H15         6.0030   -4.0850   -3.2890 hc        1 MOL      0.021564
     40 H16         7.3070   -3.1240   -2.8290 hc        1 MOL      0.021564
     41 N4          5.9390   -0.4130   -0.6300 n         1 MOL     -0.257303
     42 C14         6.1520    0.9410   -0.0710 c3        1 MOL      0.025311
     43 C15         5.3830    2.0090   -0.9270 c         1 MOL      0.545356
     44 O9          5.8820    3.0960   -1.2770 o         1 MOL     -0.579397
     45 H17         5.7510   -1.1320    0.0540 hn        1 MOL      0.169609
     46 H18         7.1870    1.2860   -0.0590 h1        1 MOL      0.055993
     47 H19         5.9020    0.9950    0.9920 h1        1 MOL      0.055993
     48 N5          4.1490    1.6840   -1.2930 n         1 MOL     -0.365471
     49 C16         3.2680    2.6150   -2.0910 c3        1 MOL     -0.028293
     50 C17         2.9210    3.8990   -1.3700 c         1 MOL      0.603596
     51 O10         2.6110    3.8470   -0.1830 o         1 MOL     -0.518439
     52 C18         2.0520    1.8200   -2.6090 c3        1 MOL     -0.278313
     53 C19         2.3580    0.4840   -3.1610 c         1 MOL      0.675246
     54 N6          3.1570    0.4700   -4.2110 n         1 MOL     -0.771590
     55 O11         2.0030   -0.5500   -2.6000 o         1 MOL     -0.577910
     56 H20         3.8620    0.7480   -1.0780 hn        1 MOL      0.246452
     57 H21         3.8590    2.9090   -2.9550 h1        1 MOL      0.057462
     58 H22         1.5220    2.4210   -3.3500 hc        1 MOL      0.116014
     59 H23         1.3110    1.6560   -1.8320 hc        1 MOL      0.116014
     60 H24         3.7080    1.2590   -4.4850 hn        1 MOL      0.359332
     61 H25         3.7210   -0.3450   -4.4000 hn        1 MOL      0.359332
     62 N7          2.9560    5.0280   -2.0750 n         1 MOL     -0.420300
     63 C20         2.6730    6.4210   -1.5410 c3        1 MOL     -0.069602
     64 C21         1.2040    6.9070   -1.7080 c         1 MOL      0.537852
     65 O12         0.4910    6.5700   -2.6460 o         1 MOL     -0.508157
     66 H26         3.1820    4.9230   -3.0580 hn        1 MOL      0.279211
     67 H27         3.3030    7.1600   -2.0420 h1        1 MOL      0.084896
     68 H28         3.0120    6.3990   -0.5030 h1        1 MOL      0.084896
     69 N8          0.7590    7.4440   -0.5910 n         1 MOL     -0.470723
     70 C22        -0.6090    7.9310   -0.3860 c3        1 MOL     -0.144945
     71 C23        -1.5940    6.8560    0.2550 c         1 MOL      0.527037
     72 O13        -2.7620    7.2550    0.3430 o         1 MOL     -0.576348
     73 C24        -0.5750    9.1670    0.5640 c3        1 MOL      0.527504
     74 C25        -0.1290    8.9320    1.9900 c3        1 MOL     -0.381723
     75 O14         0.1680   10.1760   -0.0890 oh        1 MOL     -0.655466
     76 H29         1.4390    7.5970    0.1380 hn        1 MOL      0.254862
     77 H30        -1.0650    8.2790   -1.3110 h1        1 MOL      0.144159
     78 H31        -1.6010    9.5270    0.5480 h1        1 MOL      0.003985
     79 H32         1.0890    9.8980   -0.1470 ho        1 MOL      0.371849
     80 H33         0.6240    8.1540    2.0300 hc        1 MOL      0.093398
     81 H34         0.2970    9.8600    2.3860 hc        1 MOL      0.093398
     82 H35        -1.0040    8.6190    2.5480 hc        1 MOL      0.093398
     83 N9         -1.2590    5.5930    0.5530 n         1 MOL     -0.282553
     84 C26        -2.1310    4.5630    0.9430 c3        1 MOL      0.033793
     85 C27        -1.8220    3.3140    0.0610 c         1 MOL      0.467724
     86 O15        -1.0360    3.3200   -0.9100 o         1 MOL     -0.465820
     87 C28        -2.1040    4.4580    2.4750 c3        1 MOL     -0.039444
     88 C29        -0.8280    4.1720    3.3490 c3        1 MOL     -0.346386
     89 C30        -2.9000    5.6410    3.0010 c3        1 MOL     -0.226715
     90 C31         0.0100    3.0170    2.8270 c3        1 MOL     -0.060748
     91 H36        -0.2910    5.3720    0.3770 hn        1 MOL      0.231598
     92 H37        -3.1440    4.7960    0.6000 h1        1 MOL      0.097678
     93 H38        -2.7670    3.6150    2.6860 hc        1 MOL      0.069947
     94 H39        -1.2030    3.9750    4.3620 hc        1 MOL      0.110144
     95 H40        -0.1130    4.9690    3.5040 hc        1 MOL      0.110144
     96 H41        -3.1500    5.3490    4.0200 hc        1 MOL      0.062957
     97 H42        -2.2430    6.5120    2.9950 hc        1 MOL      0.062957
     98 H43        -3.8340    5.8000    2.4490 hc        1 MOL      0.062957
     99 H44         0.5020    3.3260    1.9060 hc        1 MOL      0.078686
    100 H45         0.7910    2.7580    3.5480 hc        1 MOL      0.078686
    101 H46        -0.7140    2.2370    2.6250 hc        1 MOL      0.078686
    102 N10        -2.5890    2.2340    0.2390 n         1 MOL     -0.482118
    103 C32        -2.4780    0.9180   -0.2920 c3        1 MOL      0.143538
    104 C33        -3.7980    0.0670   -0.4490 c         1 MOL      0.389848
    105 O16        -3.7430   -1.1670   -0.5660 o         1 MOL     -0.459222
    106 C34        -1.4210    0.1630    0.4790 c3        1 MOL      0.232250
    107 C35        -0.7090   -0.9040   -0.3730 c         1 MOL      0.638815
    108 O17         0.3960   -1.2370    0.0560 o         1 MOL     -0.727317
    109 O18        -1.0110   -1.1580   -1.5480 o         1 MOL     -0.727317
    110 H47        -3.3320    2.3740    0.9190 hn        1 MOL      0.231156
    111 H48        -2.1070    1.0940   -1.2970 h1        1 MOL      0.042939
    112 H49        -1.8890   -0.3690    1.3050 hc        1 MOL     -0.092024
    113 H50        -0.6520    0.8680    0.7930 hc        1 MOL     -0.092024
    114 N11        -5.0140    0.6380   -0.3320 n         1 MOL     -0.365934
    115 C36        -6.2570   -0.0270   -0.7810 c3        1 MOL      0.214573
    116 C37        -6.5960   -1.1690    0.1560 c         1 MOL      0.393623
    117 O19        -6.7330   -0.9400    1.3440 o         1 MOL     -0.553183
    118 C38        -7.4830    0.9390   -0.9530 c3        1 MOL     -0.380805
    119 C39        -8.7430    0.2280   -1.4160 ca        1 MOL      0.149243
    120 C40        -8.9460    0.0950   -2.8160 ca        1 MOL     -0.204750
    121 C41        -9.5790   -0.4220   -0.4940 ca        1 MOL     -0.204750
    122 C42        -9.9600   -0.7590   -3.2900 ca        1 MOL     -0.094423
    123 C43       -10.6710   -1.1780   -0.9650 ca        1 MOL     -0.094423
    124 C44       -10.8200   -1.3600   -2.3550 ca        1 MOL     -0.112339
    125 H51        -5.0590    1.6200   -0.1430 hn        1 MOL      0.224267
    126 H52        -6.0050   -0.4360   -1.7660 h1        1 MOL      0.003669
    127 H53        -7.2710    1.7250   -1.6640 hc        1 MOL      0.135892
    128 H54        -7.6810    1.2740    0.0690 hc        1 MOL      0.135892
    129 H55        -8.2320    0.4950   -3.5270 ha        1 MOL      0.140263
    130 H56        -9.3750   -0.3690    0.5590 ha        1 MOL      0.140263
    131 H57       -10.0810   -0.8060   -4.3630 ha        1 MOL      0.111555
    132 H58       -11.3420   -1.6750   -0.2690 ha        1 MOL      0.111555
    133 H59       -11.6480   -1.8990   -2.7840 ha        1 MOL      0.092213
    134 N12        -6.8280   -2.3730   -0.3640 n         1 MOL      0.077572
    135 C45        -7.1400   -3.4860    0.4870 c3        1 MOL     -0.019371
    136 C46        -6.0940   -3.8990    1.5240 c         1 MOL      0.313983
    137 O20        -6.4770   -4.5310    2.4800 o         1 MOL     -0.512924
    138 C47        -7.5590   -4.6570   -0.4700 c3        1 MOL     -0.058454
    139 C48        -6.8740   -4.2550   -1.7800 c3        1 MOL     -0.094014
    140 C49        -6.7440   -2.7450   -1.8010 c3        1 MOL     -0.078116
    141 H60        -8.0480   -3.2490    1.0260 h1        1 MOL      0.073333
    142 H61        -7.2200   -5.6290   -0.1270 hc        1 MOL      0.039103
    143 H62        -8.6490   -4.6110   -0.5210 hc        1 MOL      0.039103
    144 H63        -5.8830   -4.6900   -1.7350 hc        1 MOL      0.048992
    145 H64        -7.4370   -4.5940   -2.6520 hc        1 MOL      0.048992
    146 H65        -5.8310   -2.5480   -2.3660 h1        1 MOL      0.057083
    147 H66        -7.5500   -2.2480   -2.3430 h1        1 MOL      0.057083
    148 N13        -4.8280   -3.4540    1.4420 n         1 MOL     -0.011874
    149 C50        -3.7480   -3.6320    2.4240 c3        1 MOL     -0.286706
    150 C51        -3.7550   -2.6110    3.6010 c         1 MOL      0.476415
    151 O21        -3.2430   -2.8930    4.6790 o         1 MOL     -0.539945
    152 C52        -2.3460   -3.5630    1.8400 c3        1 MOL      0.408005
    153 C53        -2.0210   -4.6730    0.8710 c3        1 MOL     -0.250460
    154 C54        -0.7730   -4.4000    0.0770 c         1 MOL      0.819963
    155 O22         0.3020   -4.0280    0.5220 o         1 MOL     -0.811651
    156 O23        -0.8670   -4.4720   -1.2050 o         1 MOL     -0.811651
    157 H67        -4.6360   -2.8660    0.6520 hn        1 MOL      0.111722
    158 H68        -3.7890   -4.5680    2.9840 h1        1 MOL      0.116224
    159 H69        -1.6510   -3.6130    2.6790 hc        1 MOL     -0.042846
    160 H70        -2.1360   -2.5850    1.4000 hc        1 MOL     -0.042846
    161 H71        -2.8160   -4.6500    0.1260 hc        1 MOL      0.016020
    162 H72        -1.9450   -5.6340    1.3770 hc        1 MOL      0.016020
    163 N14        -4.3240   -1.4400    3.3060 n         1 MOL     -0.145148
    164 C55        -4.5390   -0.4270    4.3780 c3        1 MOL     -0.270293
    165 H73        -5.4440   -0.6730    4.9330 h1        1 MOL      0.103613
    166 H74        -3.6850   -0.4290    5.0560 h1        1 MOL      0.103613
    167 H75        -4.6450    0.5600    3.9290 h1        1 MOL      0.103613
    168 H76        -4.7440   -1.2750    2.3950 hn        1 MOL      0.173722
    169 Ca1         1.1410   -2.8650   -1.7390 Ca        1 MOL      1.694417
    170 O24        -0.4370   -2.5080   -3.9020 oh        1 MOL     -0.829828
    171 H77        -1.1230   -2.7520   -4.5190 ho        1 MOL      0.405500
    172 H78        -0.6170   -1.5880   -3.6990 ho        1 MOL      0.405500
    173 O25         2.2640   -5.3330   -1.4980 oh        1 MOL     -0.829828
    174 H79         1.5920   -5.8910   -1.1040 ho        1 MOL      0.405500
    175 H80         2.7610   -5.9180   -2.0720 ho        1 MOL      0.405500
    176 O26         2.6450   -3.3140   -3.8720 oh        1 MOL     -0.829828
    177 H81         2.9800   -4.1760   -4.1250 ho        1 MOL      0.405500
    178 H82         2.6650   -2.8050   -4.6820 ho        1 MOL      0.405500
@<TRIPOS>BOND
     1    1    2 1   
     2    1    4 1   
     3    1    5 1   
     4    1    6 1   
     5    2    3 2   
     6    2    7 1   
     7    7    8 1   
     8    7   15 1   
     9    8    9 1   
    10    8   11 1   
    11    8   16 1   
    12    9   10 2   
    13    9   19 1   
    14   11   12 1   
    15   11   17 1   
    16   11   18 1   
    17   12   13 1   
    18   12   14 1   
    19   19   20 1   
    20   19   24 1   
    21   20   21 1   
    22   20   23 1   
    23   20   25 1   
    24   21   22 2   
    25   21   29 1   
    26   23   26 1   
    27   23   27 1   
    28   23   28 1   
    29   29   30 1   
    30   29   37 1   
    31   30   31 1   
    32   30   33 1   
    33   30   38 1   
    34   31   32 2   
    35   31   41 1   
    36   33   34 1   
    37   33   39 1   
    38   33   40 1   
    39   34   35 1   
    40   34   36 1   
    41   41   42 1   
    42   41   45 1   
    43   42   43 1   
    44   42   46 1   
    45   42   47 1   
    46   43   44 2   
    47   43   48 1   
    48   48   49 1   
    49   48   56 1   
    50   49   50 1   
    51   49   52 1   
    52   49   57 1   
    53   50   51 2   
    54   50   62 1   
    55   52   53 1   
    56   52   58 1   
    57   52   59 1   
    58   53   54 1   
    59   53   55 2   
    60   54   60 1   
    61   54   61 1   
    62   62   63 1   
    63   62   66 1   
    64   63   64 1   
    65   63   67 1   
    66   63   68 1   
    67   64   65 2   
    68   64   69 1   
    69   69   70 1   
    70   69   76 1   
    71   70   71 1   
    72   70   73 1   
    73   70   77 1   
    74   71   72 2   
    75   71   83 1   
    76   73   74 1   
    77   73   75 1   
    78   73   78 1   
    79   74   80 1   
    80   74   81 1   
    81   74   82 1   
    82   75   79 1   
    83   83   84 1   
    84   83   91 1   
    85   84   85 1   
    86   84   87 1   
    87   84   92 1   
    88   85   86 2   
    89   85  102 1   
    90   87   88 1   
    91   87   89 1   
    92   87   93 1   
    93   88   90 1   
    94   88   94 1   
    95   88   95 1   
    96   89   96 1   
    97   89   97 1   
    98   89   98 1   
    99   90   99 1   
   100   90  100 1   
   101   90  101 1   
   102  102  103 1   
   103  102  110 1   
   104  103  104 1   
   105  103  106 1   
   106  103  111 1   
   107  104  105 2   
   108  104  114 1   
   109  106  107 1   
   110  106  112 1   
   111  106  113 1   
   112  107  108 1   
   113  107  109 1   
   114  114  115 1   
   115  114  125 1   
   116  115  116 1   
   117  115  118 1   
   118  115  126 1   
   119  116  117 2   
   120  116  134 1   
   121  118  119 1   
   122  118  127 1   
   123  118  128 1   
   124  119  120 ar  
   125  119  121 ar  
   126  120  122 ar  
   127  120  129 1   
   128  121  123 ar  
   129  121  130 1   
   130  122  124 ar  
   131  122  131 1   
   132  123  124 ar  
   133  123  132 1   
   134  124  133 1   
   135  134  135 1   
   136  134  140 1   
   137  135  136 1   
   138  135  138 1   
   139  135  141 1   
   140  136  137 2   
   141  136  148 1   
   142  138  139 1   
   143  138  142 1   
   144  138  143 1   
   145  139  140 1   
   146  139  144 1   
   147  139  145 1   
   148  140  146 1   
   149  140  147 1   
   150  148  149 1   
   151  148  157 1   
   152  149  150 1   
   153  149  152 1   
   154  149  158 1   
   155  150  151 2   
   156  150  163 1   
   157  152  153 1   
   158  152  159 1   
   159  152  160 1   
   160  153  154 1   
   161  153  161 1   
   162  153  162 1   
   163  154  155 1   
   164  154  156 1   
   165  163  164 1   
   166  163  168 1   
   167  164  165 1   
   168  164  166 1   
   169  164  167 1   
   170  170  171 1   
   171  170  172 1   
   172  173  174 1   
   173  173  175 1   
   174  176  177 1   
   175  176  178 1   
@<TRIPOS>SUBSTRUCTURE
     1 MOL         1 TEMP              0 ****  ****    0 ROOT
