@<TRIPOS>MOLECULE
MOL
  192   187     1     0     0
SMALL
resp


@<TRIPOS>ATOM
      1 C1         12.1880    5.1110   -3.1640 c3        1 MOL     -0.482484
      2 C2         11.9940    3.8980   -2.2540 c         1 MOL      0.712269
      3 O1         12.6480    2.9180   -2.3340 o         1 MOL     -0.600277
      4 H1         11.6120    5.9510   -2.7760 hc        1 MOL      0.126601
      5 H2         13.2440    5.3780   -3.1940 hc        1 MOL      0.126601
      6 H3         11.8440    4.8710   -4.1700 hc        1 MOL      0.126601
      7 N1         11.0760    4.0390   -1.3020 n         1 MOL     -0.184350
      8 C3         10.9240    3.1530   -0.1590 c3        1 MOL     -0.355393
      9 C4          9.6730    2.2710   -0.2910 c         1 MOL      0.715053
     10 O2          8.5980    2.7280   -0.7700 o         1 MOL     -0.737185
     11 C5         10.8930    3.9190    1.1880 c3        1 MOL     -0.030709
     12 C6          9.7990    4.9250    1.4210 c         1 MOL      0.866311
     13 O3          9.7520    5.4080    2.5880 o         1 MOL     -0.747064
     14 O4          9.0780    5.4620    0.5310 o         1 MOL     -0.747064
     15 H4         10.4800    4.8590   -1.3060 hn        1 MOL      0.048115
     16 H5         11.8020    2.5320   -0.0370 h1        1 MOL      0.149326
     17 H6         11.8330    4.4540    1.3620 hc        1 MOL      0.045865
     18 H7         10.7070    3.2070    1.9970 hc        1 MOL      0.045865
     19 N2          9.7850    0.9690   -0.1010 n         1 MOL     -0.480789
     20 C7          8.7070    0.0520   -0.3810 c3        1 MOL      0.023133
     21 C8          7.6880    0.1100    0.7900 c         1 MOL      0.817363
     22 O5          8.0030   -0.1800    1.9710 o         1 MOL     -0.567290
     23 C9          9.2570   -1.3890   -0.6550 c3        1 MOL     -0.290694
     24 C10         8.1800   -2.4300   -0.8830 c3        1 MOL      0.410489
     25 C11         8.7150   -3.7350   -1.4160 c3        1 MOL     -0.218094
     26 C12         7.5050   -4.5380   -1.8140 c3        1 MOL      0.149238
     27 N3          7.8980   -5.8200   -2.5050 n4        1 MOL     -0.373867
     28 H8         10.6040    0.6460    0.3940 hn        1 MOL      0.308211
     29 H9          8.1630    0.4070   -1.2500 h1        1 MOL      0.112807
     30 H10         9.8330   -1.6480    0.2300 hc        1 MOL      0.075163
     31 H11         9.9190   -1.4100   -1.5250 hc        1 MOL      0.075163
     32 H12         7.6520   -2.0520   -1.7610 hc        1 MOL     -0.065112
     33 H13         7.5280   -2.4980   -0.0160 hc        1 MOL     -0.065112
     34 H14         9.1570   -4.2840   -0.5880 hc        1 MOL      0.072313
     35 H15         9.3210   -3.4900   -2.2930 hc        1 MOL      0.072313
     36 H16         6.8240   -3.9700   -2.4440 hx        1 MOL      0.054185
     37 H17         6.9550   -4.7850   -0.9000 hx        1 MOL      0.054185
     38 H18         7.1370   -6.1860   -3.0460 hn        1 MOL      0.282262
     39 H19         8.6190   -5.6870   -3.2020 hn        1 MOL      0.282262
     40 H20         8.2630   -6.4530   -1.8100 hn        1 MOL      0.282262
     41 N4          6.4420    0.3740    0.3600 n         1 MOL     -0.830484
     42 C13         5.2130    0.3770    1.2190 c3        1 MOL      0.562562
     43 C14         3.9940    0.1240    0.3530 c         1 MOL      0.217274
     44 O6          3.9780    0.5650   -0.8200 o         1 MOL     -0.487329
     45 C15         5.1080    1.5530    2.1980 c3        1 MOL      0.019587
     46 C16         5.6470    2.8630    1.6850 c         1 MOL      0.632386
     47 O7          6.8590    3.0670    1.6570 o         1 MOL     -0.742900
     48 O8          4.7910    3.6700    1.2010 o         1 MOL     -0.742900
     49 H21         6.2930    0.5530   -0.6210 hn        1 MOL      0.248226
     50 H22         5.2530   -0.4640    1.9180 h1        1 MOL     -0.044387
     51 H23         5.5920    1.2590    3.1330 hc        1 MOL      0.003651
     52 H24         4.0600    1.7050    2.4540 hc        1 MOL      0.003651
     53 N5          2.9160   -0.4540    0.9110 n         1 MOL     -0.240217
     54 C17         2.7810   -0.9470    2.2980 c3        1 MOL     -0.068901
     55 C18         3.0540   -2.4250    2.4590 c         1 MOL      0.815628
     56 O9          3.5040   -3.0580    1.5690 o         1 MOL     -0.641866
     57 H25         2.2300   -0.6000    0.1910 hn        1 MOL      0.213121
     58 H26         1.8080   -0.7570    2.7600 h1        1 MOL      0.035000
     59 H27         3.5360   -0.4840    2.9270 h1        1 MOL      0.035000
     60 N6          2.7310   -3.0220    3.6120 n         1 MOL     -0.622914
     61 C19         3.0310   -4.4560    3.8990 c3        1 MOL      0.111900
     62 C20         2.1190   -5.4250    3.2030 c         1 MOL      0.340592
     63 O10         2.3970   -6.6430    3.1650 o         1 MOL     -0.526713
     64 C21         2.7250   -4.7290    5.3910 c3        1 MOL     -0.144233
     65 C22         3.4660   -3.8710    6.4530 c         1 MOL      0.687576
     66 O11         4.5550   -3.3970    6.1050 o         1 MOL     -0.649143
     67 O12         2.9700   -3.7270    7.6110 o         1 MOL     -0.649143
     68 H28         2.2050   -2.4970    4.2920 hn        1 MOL      0.326202
     69 H29         4.0340   -4.7900    3.6460 h1        1 MOL      0.116195
     70 H30         2.9120   -5.7860    5.5520 hc        1 MOL      0.026661
     71 H31         1.6800   -4.4870    5.5720 hc        1 MOL      0.026661
     72 N7          1.0460   -5.0190    2.4710 n         1 MOL     -0.151141
     73 C23         0.1070   -5.7420    1.7310 c3        1 MOL      0.006521
     74 C24         0.1200   -5.3890    0.2130 c         1 MOL      0.457970
     75 O13        -0.7310   -6.0040   -0.4430 o         1 MOL     -0.565657
     76 H32         0.9160   -4.0180    2.4490 hn        1 MOL      0.155861
     77 H33        -0.8620   -5.5150    2.1730 h1        1 MOL      0.063591
     78 H34         0.2600   -6.8170    1.7550 h1        1 MOL      0.063591
     79 N8          0.9380   -4.4650   -0.2370 n         1 MOL     -0.259214
     80 C25         0.8910   -3.9110   -1.6600 c3        1 MOL      0.047764
     81 C26         0.4510   -2.4790   -1.6560 c         1 MOL      0.353736
     82 O14         0.8710   -1.7090   -0.7940 o         1 MOL     -0.438974
     83 C27         2.2320   -4.1980   -2.4100 c3        1 MOL      0.345344
     84 C28         2.9130   -5.5100   -2.0290 c3        1 MOL     -0.560327
     85 O15         1.8000   -4.1750   -3.8030 oh        1 MOL     -0.632073
     86 H35         1.3640   -3.9180    0.4890 hn        1 MOL      0.170691
     87 H36         0.1210   -4.4910   -2.1660 h1        1 MOL      0.098372
     88 H37         2.9350   -3.3750   -2.2900 h1        1 MOL     -0.011549
     89 H38         2.5630   -3.8960   -4.3100 ho        1 MOL      0.393997
     90 H39         3.1630   -5.4690   -0.9780 hc        1 MOL      0.156923
     91 H40         2.0940   -6.1950   -2.2510 hc        1 MOL      0.156923
     92 H41         3.8640   -5.7600   -2.4860 hc        1 MOL      0.156923
     93 N9         -0.4860   -2.0520   -2.5150 n         1 MOL     -0.150795
     94 C29        -1.0340   -0.6040   -2.7310 c3        1 MOL     -0.285220
     95 C30        -2.3440   -0.4730   -2.0120 c         1 MOL      0.585413
     96 O16        -2.7610    0.6210   -1.5850 o         1 MOL     -0.541187
     97 C31        -1.2180   -0.2780   -4.2690 c3        1 MOL      0.270741
     98 C32        -0.1170   -0.6970   -5.1910 c3        1 MOL      0.037990
     99 C33        -1.6490    1.1620   -4.6170 c3        1 MOL     -0.293329
    100 C34         1.1860    0.0310   -4.8830 c3        1 MOL     -0.168971
    101 H42        -0.5760   -2.6840   -3.2950 hn        1 MOL      0.193153
    102 H43        -0.3150    0.0990   -2.3200 h1        1 MOL      0.162071
    103 H44        -2.0950   -0.8280   -4.6070 hc        1 MOL     -0.026761
    104 H45        -0.4410   -0.7190   -6.2340 hc        1 MOL      0.000288
    105 H46         0.1130   -1.7590   -5.0870 hc        1 MOL      0.000288
    106 H47        -2.5340    1.3910   -4.0240 hc        1 MOL      0.079697
    107 H48        -0.9180    1.9190   -4.3120 hc        1 MOL      0.079697
    108 H49        -1.8960    1.1970   -5.6770 hc        1 MOL      0.079697
    109 H50         1.0990    1.1140   -4.9270 hc        1 MOL      0.029635
    110 H51         1.6870   -0.2800   -3.9690 hc        1 MOL      0.029635
    111 H52         1.8810   -0.2770   -5.6570 hc        1 MOL      0.029635
    112 N10        -3.0160   -1.6000   -1.7860 n         1 MOL     -0.307214
    113 C35        -4.2720   -1.7100   -0.9590 c3        1 MOL     -0.121774
    114 C36        -5.5000   -2.3160   -1.6980 c         1 MOL      0.574916
    115 O17        -5.3270   -3.0250   -2.7160 o         1 MOL     -0.508296
    116 C37        -3.9910   -2.5840    0.2820 c3        1 MOL      0.378904
    117 C38        -3.4310   -3.9460   -0.0950 c3        1 MOL     -0.337579
    118 O18        -3.0530   -1.8910    1.0790 oh        1 MOL     -0.619543
    119 H53        -2.5330   -2.4420   -2.0780 hn        1 MOL      0.166349
    120 H54        -4.3930   -0.6920   -0.6140 h1        1 MOL      0.096757
    121 H55        -4.8370   -2.6980    0.9680 h1        1 MOL     -0.000460
    122 H56        -3.4730   -1.1760    1.5730 ho        1 MOL      0.393920
    123 H57        -3.6800   -4.6440    0.7070 hc        1 MOL      0.104034
    124 H58        -3.8920   -4.3070   -1.0100 hc        1 MOL      0.104034
    125 H59        -2.3610   -3.8730   -0.2960 hc        1 MOL      0.104034
    126 N11        -6.7410   -1.8930   -1.2680 n         1 MOL     -0.497585
    127 C39        -8.0260   -2.2380   -1.9530 c3        1 MOL     -0.010938
    128 C40        -8.8970   -0.9950   -1.8700 c         1 MOL      0.599638
    129 O19        -9.5360   -0.6530   -2.8820 o         1 MOL     -0.569025
    130 C41        -8.6900   -3.5290   -1.4760 c3        1 MOL      0.353564
    131 C42       -10.0580   -3.8200   -2.1190 c3        1 MOL     -0.425406
    132 O20        -8.8330   -3.4200   -0.1080 oh        1 MOL     -0.649925
    133 H60        -6.7580   -1.1740   -0.5580 hn        1 MOL      0.247598
    134 H61        -7.7830   -2.5050   -2.9880 h1        1 MOL      0.089177
    135 H62        -8.0190   -4.3480   -1.7290 h1        1 MOL      0.030607
    136 H63        -9.5440   -3.9990    0.1700 ho        1 MOL      0.408902
    137 H64        -9.8970   -4.1120   -3.1620 hc        1 MOL      0.109657
    138 H65       -10.5380   -4.6020   -1.5350 hc        1 MOL      0.109657
    139 H66       -10.6550   -2.9070   -2.2150 hc        1 MOL      0.109657
    140 N12        -8.9690   -0.3300   -0.7620 n         1 MOL     -0.429796
    141 C43       -10.0480    0.6530   -0.5370 c3        1 MOL      0.026301
    142 C44        -9.5620    1.7290    0.5050 c         1 MOL      0.383733
    143 O21        -9.0140    1.3520    1.5670 o         1 MOL     -0.463739
    144 C45       -11.2680   -0.0530    0.0690 c3        1 MOL     -0.300736
    145 C46       -12.3870    0.9940    0.2370 c3        1 MOL      0.492432
    146 C47       -13.5670    0.3170    0.9070 c3        1 MOL     -0.089474
    147 C48       -14.8070    1.1870    0.5760 c3        1 MOL      0.212313
    148 N13       -16.0620    0.5720    0.9850 n4        1 MOL     -0.331814
    149 H67        -8.4140   -0.5510    0.0480 hn        1 MOL      0.311999
    150 H68       -10.3950    1.1730   -1.4300 h1        1 MOL      0.076837
    151 H69       -11.0810   -0.4130    1.0800 hc        1 MOL      0.088633
    152 H70       -11.7030   -0.8430   -0.5400 hc        1 MOL      0.088633
    153 H71       -12.6710    1.3750   -0.7450 hc        1 MOL     -0.108693
    154 H72       -12.2080    1.9160    0.7890 hc        1 MOL     -0.108693
    155 H73       -13.3540    0.1960    1.9720 hc        1 MOL      0.003354
    156 H74       -13.6670   -0.6410    0.3800 hc        1 MOL      0.003354
    157 H75       -14.8890    1.2090   -0.5100 hx        1 MOL      0.019717
    158 H76       -14.7150    2.2010    0.9600 hx        1 MOL      0.019717
    159 H77       -16.1140   -0.3520    0.5750 hn        1 MOL      0.295511
    160 H78       -16.1750    0.5300    1.9900 hn        1 MOL      0.295511
    161 H79       -16.8200    1.1100    0.5970 hn        1 MOL      0.295511
    162 N14        -9.8420    3.0130    0.1540 n         1 MOL     -0.354903
    163 C49        -9.5630    4.1120    1.0700 c3        1 MOL      0.441941
    164 C50        -8.1140    4.3020    1.6000 c         1 MOL      0.227730
    165 O22        -7.9100    4.5300    2.8330 o         1 MOL     -0.498350
    166 C51       -10.2290    5.4010    0.6320 c3        1 MOL     -0.216234
    167 C52       -11.7930    5.2620    0.4170 c3        1 MOL      0.110099
    168 C53       -12.5550    5.7410    1.6590 c         1 MOL      0.671520
    169 O23       -12.3590    5.1530    2.7820 o         1 MOL     -0.677075
    170 O24       -13.3790    6.6710    1.5600 o         1 MOL     -0.677075
    171 H80       -10.4930    3.1920   -0.5950 hn        1 MOL      0.256188
    172 H81       -10.0210    3.9410    2.0430 h1        1 MOL     -0.038469
    173 H82        -9.7670    5.7040   -0.3060 hc        1 MOL      0.055772
    174 H83       -10.0590    6.1520    1.4020 hc        1 MOL      0.055772
    175 H84       -12.0330    4.2320    0.1280 hc        1 MOL     -0.092762
    176 H85       -12.1440    5.8160   -0.4520 hc        1 MOL     -0.092762
    177 N15        -7.0820    4.1570    0.8180 n         1 MOL     -0.254721
    178 C54        -6.9580    4.2270   -0.5930 c3        1 MOL      0.098250
    179 H86        -6.8290    5.2660   -0.8940 h1        1 MOL     -0.003611
    180 H87        -6.0920    3.6470   -0.9120 h1        1 MOL     -0.003611
    181 H88        -7.8580    3.8240   -1.0570 h1        1 MOL     -0.003611
    182 H89        -6.2260    4.0670    1.3510 hn        1 MOL      0.269229
    183 Ca1         6.7490    4.6890   -0.5240 Ca        1 MOL      1.799034
    184 O25         4.3670    5.7300   -1.1790 oh        1 MOL     -0.912040
    185 H90         3.8790    6.4500   -0.7790 ho        1 MOL      0.451555
    186 H91         3.6970    5.0770   -1.3910 ho        1 MOL      0.451555
    187 O26         6.3260    6.1470    1.6840 oh        1 MOL     -0.912040
    188 H92         5.7920    6.7350    2.2160 ho        1 MOL      0.451555
    189 H93         6.5950    5.4560    2.2850 ho        1 MOL      0.451555
    190 O27         5.5880    2.7970   -1.9510 oh        1 MOL     -0.912040
    191 H94         6.1350    2.3330   -2.5870 ho        1 MOL      0.451555
    192 H95         4.6930    2.5510   -2.1870 ho        1 MOL      0.451555
@<TRIPOS>BOND
     1    1    2 1   
     2    1    4 1   
     3    1    5 1   
     4    1    6 1   
     5    2    3 2   
     6    2    7 1   
     7    7    8 1   
     8    7   15 1   
     9    8    9 1   
    10    8   11 1   
    11    8   16 1   
    12    9   10 2   
    13    9   19 1   
    14   11   12 1   
    15   11   17 1   
    16   11   18 1   
    17   12   13 1   
    18   12   14 1   
    19   19   20 1   
    20   19   28 1   
    21   20   21 1   
    22   20   23 1   
    23   20   29 1   
    24   21   22 2   
    25   21   41 1   
    26   23   24 1   
    27   23   30 1   
    28   23   31 1   
    29   24   25 1   
    30   24   32 1   
    31   24   33 1   
    32   25   26 1   
    33   25   34 1   
    34   25   35 1   
    35   26   27 1   
    36   26   36 1   
    37   26   37 1   
    38   27   38 1   
    39   27   39 1   
    40   27   40 1   
    41   41   42 1   
    42   41   49 1   
    43   42   43 1   
    44   42   45 1   
    45   42   50 1   
    46   43   44 2   
    47   43   53 1   
    48   45   46 1   
    49   45   51 1   
    50   45   52 1   
    51   46   47 1   
    52   46   48 1   
    53   53   54 1   
    54   53   57 1   
    55   54   55 1   
    56   54   58 1   
    57   54   59 1   
    58   55   56 2   
    59   55   60 1   
    60   60   61 1   
    61   60   68 1   
    62   61   62 1   
    63   61   64 1   
    64   61   69 1   
    65   62   63 2   
    66   62   72 1   
    67   64   65 1   
    68   64   70 1   
    69   64   71 1   
    70   65   66 1   
    71   65   67 1   
    72   72   73 1   
    73   72   76 1   
    74   73   74 1   
    75   73   77 1   
    76   73   78 1   
    77   74   75 2   
    78   74   79 1   
    79   79   80 1   
    80   79   86 1   
    81   80   81 1   
    82   80   83 1   
    83   80   87 1   
    84   81   82 2   
    85   81   93 1   
    86   83   84 1   
    87   83   85 1   
    88   83   88 1   
    89   84   90 1   
    90   84   91 1   
    91   84   92 1   
    92   85   89 1   
    93   93   94 1   
    94   93  101 1   
    95   94   95 1   
    96   94   97 1   
    97   94  102 1   
    98   95   96 2   
    99   95  112 1   
   100   97   98 1   
   101   97   99 1   
   102   97  103 1   
   103   98  100 1   
   104   98  104 1   
   105   98  105 1   
   106   99  106 1   
   107   99  107 1   
   108   99  108 1   
   109  100  109 1   
   110  100  110 1   
   111  100  111 1   
   112  112  113 1   
   113  112  119 1   
   114  113  114 1   
   115  113  116 1   
   116  113  120 1   
   117  114  115 2   
   118  114  126 1   
   119  116  117 1   
   120  116  118 1   
   121  116  121 1   
   122  117  123 1   
   123  117  124 1   
   124  117  125 1   
   125  118  122 1   
   126  126  127 1   
   127  126  133 1   
   128  127  128 1   
   129  127  130 1   
   130  127  134 1   
   131  128  129 2   
   132  128  140 1   
   133  130  131 1   
   134  130  132 1   
   135  130  135 1   
   136  131  137 1   
   137  131  138 1   
   138  131  139 1   
   139  132  136 1   
   140  140  141 1   
   141  140  149 1   
   142  141  142 1   
   143  141  144 1   
   144  141  150 1   
   145  142  143 2   
   146  142  162 1   
   147  144  145 1   
   148  144  151 1   
   149  144  152 1   
   150  145  146 1   
   151  145  153 1   
   152  145  154 1   
   153  146  147 1   
   154  146  155 1   
   155  146  156 1   
   156  147  148 1   
   157  147  157 1   
   158  147  158 1   
   159  148  159 1   
   160  148  160 1   
   161  148  161 1   
   162  162  163 1   
   163  162  171 1   
   164  163  164 1   
   165  163  166 1   
   166  163  172 1   
   167  164  165 2   
   168  164  177 1   
   169  166  167 1   
   170  166  173 1   
   171  166  174 1   
   172  167  168 1   
   173  167  175 1   
   174  167  176 1   
   175  168  169 1   
   176  168  170 1   
   177  177  178 1   
   178  177  182 1   
   179  178  179 1   
   180  178  180 1   
   181  178  181 1   
   182  184  185 1   
   183  184  186 1   
   184  187  188 1   
   185  187  189 1   
   186  190  191 1   
   187  190  192 1   
@<TRIPOS>SUBSTRUCTURE
     1 MOL         1 TEMP              0 ****  ****    0 ROOT
