@<TRIPOS>MOLECULE
MOL
  181   177     1     0     0
SMALL
resp


@<TRIPOS>ATOM
      1 C1         11.0380    6.1720   -1.5160 c3        1 MOL     -0.387708
      2 C2         10.1460    5.4750   -0.4730 c         1 MOL      0.596753
      3 O1         10.3100    5.7070    0.7520 o         1 MOL     -0.597802
      4 H1         11.8370    5.4960   -1.8210 hc        1 MOL      0.104811
      5 H2         10.4390    6.4420   -2.3850 hc        1 MOL      0.104811
      6 H3         11.4720    7.0720   -1.0810 hc        1 MOL      0.104811
      7 N1          9.3170    4.5330   -0.8330 n         1 MOL     -0.067229
      8 C3          8.9060    3.8810   -2.0890 c3        1 MOL     -0.447429
      9 C4          8.5180    2.4230   -1.8610 c         1 MOL      0.643527
     10 O2          7.6200    2.2480   -1.0490 o         1 MOL     -0.386435
     11 C5          7.8800    4.7020   -2.8200 c3        1 MOL      0.074452
     12 C6          6.7550    5.2790   -1.9360 c         1 MOL      0.624349
     13 O3          5.9230    6.0660   -2.4550 o         1 MOL     -0.675745
     14 O4          6.4020    4.7580   -0.8380 o         1 MOL     -0.675745
     15 H4          8.6390    4.2800   -0.1250 hn        1 MOL      0.007368
     16 H5          9.8060    3.8900   -2.7220 h1        1 MOL      0.098009
     17 H6          7.4960    4.1960   -3.7020 hc        1 MOL      0.025857
     18 H7          8.3510    5.6430   -3.1310 hc        1 MOL      0.025857
     19 N2          8.9600    1.4100   -2.6800 n         1 MOL     -0.543713
     20 C7          8.5020    0.0760   -2.6970 c3        1 MOL      0.067712
     21 C8          8.9090   -0.6170   -1.3460 c         1 MOL      0.481012
     22 O5          9.9660   -0.4120   -0.8010 o         1 MOL     -0.492425
     23 C9          9.1170   -0.6490   -3.9110 c3        1 MOL     -0.252814
     24 H8          9.5880    1.6670   -3.4210 hn        1 MOL      0.340022
     25 H9          7.4120    0.1550   -2.7650 h1        1 MOL      0.111069
     26 H10        10.1860   -0.7660   -3.7420 hc        1 MOL      0.081586
     27 H11         8.6540   -1.6340   -4.0140 hc        1 MOL      0.081586
     28 H12         9.0790   -0.0800   -4.8330 hc        1 MOL      0.081586
     29 N3          7.9830   -1.4210   -0.7520 n         1 MOL     -0.274144
     30 C10         8.0770   -2.1990    0.5000 c3        1 MOL     -0.197165
     31 C11         7.0840   -3.3850    0.5440 c         1 MOL      0.478954
     32 O6          5.9900   -3.3950   -0.0540 o         1 MOL     -0.414922
     33 C12         7.8850   -1.3290    1.7620 c3        1 MOL     -0.016812
     34 C13         7.1100   -0.0030    1.6450 c         1 MOL      0.471212
     35 O7          5.8840   -0.1680    1.4120 o         1 MOL     -0.609448
     36 O8          7.6550    1.1060    1.6710 o         1 MOL     -0.609448
     37 H13         7.0980   -1.3480   -1.2400 hn        1 MOL      0.182868
     38 H14         9.1020   -2.5550    0.5870 h1        1 MOL      0.137622
     39 H15         8.8980   -1.1390    2.1360 hc        1 MOL      0.007740
     40 H16         7.3530   -1.8420    2.5520 hc        1 MOL      0.007740
     41 N4          7.5040   -4.4860    1.1820 n         1 MOL     -0.360228
     42 C14         6.7760   -5.7560    1.1800 c3        1 MOL     -0.173781
     43 C15         5.3190   -5.6420    1.7390 c         1 MOL      0.345805
     44 O9          4.4050   -6.3170    1.1870 o         1 MOL     -0.437768
     45 H17         8.3910   -4.4370    1.6620 hn        1 MOL      0.259810
     46 H18         7.3720   -6.5160    1.6940 h1        1 MOL      0.130241
     47 H19         6.5830   -6.1320    0.1850 h1        1 MOL      0.130241
     48 N5          5.0440   -4.7060    2.6610 n         1 MOL     -0.247728
     49 C16         3.7080   -4.5170    3.1910 c3        1 MOL     -0.223705
     50 C17         2.7270   -3.9640    2.1320 c         1 MOL      0.798571
     51 O10         1.5500   -3.8450    2.3780 o         1 MOL     -0.596259
     52 C18         3.7650   -3.6390    4.4220 c3        1 MOL     -0.042269
     53 C19         4.1870   -2.2060    4.0850 c         1 MOL      0.491968
     54 N6          5.4190   -1.8520    4.3630 n         1 MOL     -0.582621
     55 O11         3.4190   -1.4230    3.6520 o         1 MOL     -0.521362
     56 H20         5.7930   -4.2260    3.1370 hn        1 MOL      0.233588
     57 H21         3.2800   -5.4920    3.4360 h1        1 MOL      0.132923
     58 H22         4.3570   -3.9360    5.2950 hc        1 MOL      0.045152
     59 H23         2.7440   -3.6180    4.8040 hc        1 MOL      0.045152
     60 H24         6.0820   -2.4610    4.8090 hn        1 MOL      0.280973
     61 H25         5.5170   -0.8470    4.2940 hn        1 MOL      0.280973
     62 N7          3.1530   -3.6650    0.9200 n         1 MOL     -0.621514
     63 C20         2.3300   -3.5010   -0.2890 c3        1 MOL      0.285027
     64 C21         1.7500   -4.7050   -0.9420 c         1 MOL      0.542404
     65 O12         2.1110   -5.8200   -0.6150 o         1 MOL     -0.534430
     66 H26         4.1180   -3.9590    0.7950 hn        1 MOL      0.314825
     67 H27         2.9130   -2.9440   -1.0240 h1        1 MOL      0.004482
     68 H28         1.5850   -2.7730    0.0000 h1        1 MOL      0.004482
     69 N8          0.6910   -4.5800   -1.8160 n         1 MOL     -0.476790
     70 C22         0.2420   -3.3320   -2.5230 c3        1 MOL     -0.045535
     71 C23        -1.0960   -2.9980   -1.9580 c         1 MOL      0.501673
     72 O13        -2.1110   -3.7050   -2.0720 o         1 MOL     -0.519044
     73 C24         0.1530   -3.3840   -4.0620 c3        1 MOL      0.330604
     74 C25        -0.3200   -2.0460   -4.6880 c3        1 MOL     -0.398526
     75 O14         1.4070   -3.7620   -4.5040 oh        1 MOL     -0.625154
     76 H29         0.3010   -5.4640   -2.1090 hn        1 MOL      0.306816
     77 H30         1.0630   -2.6490   -2.3190 h1        1 MOL      0.086397
     78 H31        -0.5570   -4.1250   -4.4030 h1        1 MOL      0.021950
     79 H32         1.3460   -3.6220   -5.4490 ho        1 MOL      0.385814
     80 H33        -0.1100   -2.1350   -5.7560 hc        1 MOL      0.108789
     81 H34        -1.3650   -1.7960   -4.4820 hc        1 MOL      0.108789
     82 H35         0.3190   -1.2080   -4.4120 hc        1 MOL      0.108789
     83 N9         -1.1730   -1.8790   -1.2460 n         1 MOL     -0.410756
     84 C26        -2.4000   -1.2330   -0.6550 c3        1 MOL      0.092590
     85 C27        -2.9400   -0.0470   -1.5590 c         1 MOL      0.454545
     86 O15        -2.1300    0.8440   -1.8970 o         1 MOL     -0.545815
     87 C28        -1.9610   -0.8100    0.7350 c3        1 MOL     -0.009225
     88 C29        -1.2630   -1.9560    1.5650 c3        1 MOL      0.204767
     89 C30        -3.1880   -0.1790    1.4860 c3        1 MOL     -0.207961
     90 C31        -2.1850   -3.1630    1.6440 c3        1 MOL     -0.356887
     91 H36        -0.3030   -1.3740   -1.0970 hn        1 MOL      0.204401
     92 H37        -3.2190   -1.9460   -0.5210 h1        1 MOL      0.109076
     93 H38        -1.1740   -0.0550    0.7240 hc        1 MOL      0.018419
     94 H39        -1.0180   -1.5000    2.5270 hc        1 MOL     -0.031006
     95 H40        -0.3550   -2.2920    1.0520 hc        1 MOL     -0.031006
     96 H41        -3.4690    0.7770    1.0400 hc        1 MOL      0.052389
     97 H42        -4.0200   -0.8750    1.6240 hc        1 MOL      0.052389
     98 H43        -2.8130   -0.0150    2.4940 hc        1 MOL      0.052389
     99 H44        -2.2670   -3.6360    0.6710 hc        1 MOL      0.087388
    100 H45        -1.7050   -3.9930    2.1820 hc        1 MOL      0.087388
    101 H46        -3.1560   -2.9870    2.0930 hc        1 MOL      0.087388
    102 N10        -4.2010   -0.0130   -2.0270 n         1 MOL     -0.361848
    103 C32        -5.3310   -0.9440   -1.7880 c3        1 MOL      0.296664
    104 C33        -6.7050   -0.2580   -1.5890 c         1 MOL      0.628847
    105 O16        -7.0810    0.6650   -2.3290 o         1 MOL     -0.585676
    106 C34        -5.4630   -1.9310   -2.8800 c3        1 MOL     -0.431037
    107 C35        -6.2620   -3.1810   -2.5010 c         1 MOL      0.810581
    108 O17        -6.9360   -3.2890   -1.4950 o         1 MOL     -0.734663
    109 O18        -6.1770   -4.1530   -3.2850 o         1 MOL     -0.734663
    110 H47        -4.4460    0.8670   -2.4620 hn        1 MOL      0.275186
    111 H48        -5.1030   -1.3780   -0.8160 h1        1 MOL     -0.056610
    112 H49        -4.5160   -2.3440   -3.2070 hc        1 MOL      0.097353
    113 H50        -5.8680   -1.3620   -3.7190 hc        1 MOL      0.097353
    114 N11        -7.4480   -0.7400   -0.6240 n         1 MOL     -0.733929
    115 C36        -8.8270   -0.2520   -0.3450 c3        1 MOL      0.621175
    116 C37        -9.0810   -0.1690    1.1890 c         1 MOL      0.135451
    117 O19        -8.6940   -1.0340    1.9360 o         1 MOL     -0.462436
    118 C38        -9.8230   -1.2330   -0.9840 c3        1 MOL     -0.190560
    119 C39       -11.2460   -0.6590   -0.9750 ca        1 MOL      0.081617
    120 C40       -12.2280   -1.0340   -0.0560 ca        1 MOL     -0.162138
    121 C41       -11.5480    0.4700   -1.7520 ca        1 MOL     -0.162138
    122 C42       -13.5280   -0.5150   -0.0740 ca        1 MOL     -0.110012
    123 C43       -12.8400    1.0190   -1.7990 ca        1 MOL     -0.110012
    124 C44       -13.7700    0.5010   -0.9350 ca        1 MOL     -0.114789
    125 H51        -7.1640   -1.5130   -0.0380 hn        1 MOL      0.356114
    126 H52        -8.9250    0.7460   -0.7890 h1        1 MOL     -0.031328
    127 H53        -9.8290   -2.1400   -0.3740 hc        1 MOL      0.076441
    128 H54        -9.5930   -1.5570   -1.9970 hc        1 MOL      0.076441
    129 H55       -12.0070   -1.7660    0.7020 ha        1 MOL      0.117032
    130 H56       -10.8600    0.9620   -2.4180 ha        1 MOL      0.117032
    131 H57       -14.2430   -0.9250    0.6210 ha        1 MOL      0.098228
    132 H58       -13.0450    1.9090   -2.3840 ha        1 MOL      0.098228
    133 H59       -14.7420    0.9740   -0.9270 ha        1 MOL      0.066951
    134 N12        -9.6730    0.9440    1.7170 n         1 MOL      0.052565
    135 C45        -9.9640    2.2230    0.9740 c3        1 MOL     -0.189965
    136 C46        -8.6470    3.0610    0.7700 c         1 MOL      0.525763
    137 O20        -8.5740    3.9520   -0.0340 o         1 MOL     -0.524365
    138 C47       -10.8960    2.9710    1.9070 c3        1 MOL      0.069408
    139 C48       -10.4720    2.5500    3.3310 c3        1 MOL     -0.047879
    140 C49       -10.1570    1.1110    3.0800 c3        1 MOL     -0.097246
    141 H60       -10.3990    2.0230   -0.0020 h1        1 MOL      0.117105
    142 H61       -10.8880    4.0280    1.6710 hc        1 MOL     -0.003852
    143 H62       -11.9070    2.5910    1.7100 hc        1 MOL     -0.003852
    144 H63        -9.6390    3.1720    3.6550 hc        1 MOL      0.020951
    145 H64       -11.3710    2.7160    3.9230 hc        1 MOL      0.020951
    146 H65        -9.3930    0.7130    3.7550 h1        1 MOL      0.053117
    147 H66       -11.0180    0.4450    3.1910 h1        1 MOL      0.053117
    148 N13        -7.5600    2.6090    1.4620 n         1 MOL     -0.379362
    149 C50        -6.2560    3.2040    1.5270 c3        1 MOL      0.024461
    150 C51        -5.5710    2.7390    2.9140 c         1 MOL      0.298212
    151 O21        -5.8130    1.6160    3.4250 o         1 MOL     -0.537033
    152 C52        -5.3360    2.8070    0.3730 c3        1 MOL     -0.010721
    153 C53        -5.6630    3.5420   -0.9480 c3        1 MOL     -0.435696
    154 C54        -4.5480    3.6880   -2.0010 c         1 MOL      0.764662
    155 O22        -4.4520    2.8720   -3.0040 o         1 MOL     -0.697628
    156 O23        -3.7340    4.6410   -1.8870 o         1 MOL     -0.697628
    157 H67        -7.7730    1.9410    2.1900 hn        1 MOL      0.303120
    158 H68        -6.4100    4.2790    1.5180 h1        1 MOL      0.102257
    159 H69        -5.4030    1.7520    0.1380 hc        1 MOL      0.070973
    160 H70        -4.3130    3.0130    0.6790 hc        1 MOL      0.070973
    161 H71        -5.9100    4.5430   -0.5890 hc        1 MOL      0.110355
    162 H72        -6.5480    3.0590   -1.3630 hc        1 MOL      0.110355
    163 N14        -4.8810    3.5520    3.6550 n         1 MOL     -0.274835
    164 C55        -4.4030    4.9120    3.2450 c3        1 MOL     -0.084923
    165 H73        -3.4440    4.8210    2.7360 h1        1 MOL      0.062279
    166 H74        -5.1300    5.3660    2.5710 h1        1 MOL      0.062279
    167 H75        -4.2860    5.5380    4.1290 h1        1 MOL      0.062279
    168 H76        -4.5570    3.1300    4.5030 hn        1 MOL      0.274300
    169 Ca1         5.9690    2.9440    1.0020 Ca        1 MOL      1.761381
    170 O24         8.0350    4.0570    2.1970 oh        1 MOL     -0.913058
    171 H77         8.3650    4.9520    2.1110 ho        1 MOL      0.436897
    172 H78         8.6030    3.6550    2.8600 ho        1 MOL      0.436897
    173 O25         3.5460    2.3930    1.6140 oh        1 MOL     -0.913058
    174 H79         3.2750    1.8790    2.3730 ho        1 MOL      0.436897
    175 H80         2.7280    2.7480    1.2700 ho        1 MOL      0.436897
    176 O26         4.7060    1.2660   -0.9510 oh        1 MOL     -0.913058
    177 H81         5.1200    0.4110   -1.0970 ho        1 MOL      0.436897
    178 H82         3.7850    1.0660   -0.7780 ho        1 MOL      0.436897
    179 O27         5.6560    2.3130    3.4980 oh        1 MOL     -0.913058
    180 H83         6.2380    1.8790    4.1190 ho        1 MOL      0.436897
    181 H84         4.7700    2.1030    3.8180 ho        1 MOL      0.436897
@<TRIPOS>BOND
     1    1    2 1   
     2    1    4 1   
     3    1    5 1   
     4    1    6 1   
     5    2    3 2   
     6    2    7 1   
     7    7    8 1   
     8    7   15 1   
     9    8    9 1   
    10    8   11 1   
    11    8   16 1   
    12    9   10 2   
    13    9   19 1   
    14   11   12 1   
    15   11   17 1   
    16   11   18 1   
    17   12   13 1   
    18   12   14 1   
    19   19   20 1   
    20   19   24 1   
    21   20   21 1   
    22   20   23 1   
    23   20   25 1   
    24   21   22 2   
    25   21   29 1   
    26   23   26 1   
    27   23   27 1   
    28   23   28 1   
    29   29   30 1   
    30   29   37 1   
    31   30   31 1   
    32   30   33 1   
    33   30   38 1   
    34   31   32 2   
    35   31   41 1   
    36   33   34 1   
    37   33   39 1   
    38   33   40 1   
    39   34   35 1   
    40   34   36 1   
    41   41   42 1   
    42   41   45 1   
    43   42   43 1   
    44   42   46 1   
    45   42   47 1   
    46   43   44 2   
    47   43   48 1   
    48   48   49 1   
    49   48   56 1   
    50   49   50 1   
    51   49   52 1   
    52   49   57 1   
    53   50   51 2   
    54   50   62 1   
    55   52   53 1   
    56   52   58 1   
    57   52   59 1   
    58   53   54 1   
    59   53   55 2   
    60   54   60 1   
    61   54   61 1   
    62   62   63 1   
    63   62   66 1   
    64   63   64 1   
    65   63   67 1   
    66   63   68 1   
    67   64   65 2   
    68   64   69 1   
    69   69   70 1   
    70   69   76 1   
    71   70   71 1   
    72   70   73 1   
    73   70   77 1   
    74   71   72 2   
    75   71   83 1   
    76   73   74 1   
    77   73   75 1   
    78   73   78 1   
    79   74   80 1   
    80   74   81 1   
    81   74   82 1   
    82   75   79 1   
    83   83   84 1   
    84   83   91 1   
    85   84   85 1   
    86   84   87 1   
    87   84   92 1   
    88   85   86 2   
    89   85  102 1   
    90   87   88 1   
    91   87   89 1   
    92   87   93 1   
    93   88   90 1   
    94   88   94 1   
    95   88   95 1   
    96   89   96 1   
    97   89   97 1   
    98   89   98 1   
    99   90   99 1   
   100   90  100 1   
   101   90  101 1   
   102  102  103 1   
   103  102  110 1   
   104  103  104 1   
   105  103  106 1   
   106  103  111 1   
   107  104  105 2   
   108  104  114 1   
   109  106  107 1   
   110  106  112 1   
   111  106  113 1   
   112  107  108 1   
   113  107  109 1   
   114  114  115 1   
   115  114  125 1   
   116  115  116 1   
   117  115  118 1   
   118  115  126 1   
   119  116  117 2   
   120  116  134 1   
   121  118  119 1   
   122  118  127 1   
   123  118  128 1   
   124  119  120 ar  
   125  119  121 ar  
   126  120  122 ar  
   127  120  129 1   
   128  121  123 ar  
   129  121  130 1   
   130  122  124 ar  
   131  122  131 1   
   132  123  124 ar  
   133  123  132 1   
   134  124  133 1   
   135  134  135 1   
   136  134  140 1   
   137  135  136 1   
   138  135  138 1   
   139  135  141 1   
   140  136  137 2   
   141  136  148 1   
   142  138  139 1   
   143  138  142 1   
   144  138  143 1   
   145  139  140 1   
   146  139  144 1   
   147  139  145 1   
   148  140  146 1   
   149  140  147 1   
   150  148  149 1   
   151  148  157 1   
   152  149  150 1   
   153  149  152 1   
   154  149  158 1   
   155  150  151 2   
   156  150  163 1   
   157  152  153 1   
   158  152  159 1   
   159  152  160 1   
   160  153  154 1   
   161  153  161 1   
   162  153  162 1   
   163  154  155 1   
   164  154  156 1   
   165  163  164 1   
   166  163  168 1   
   167  164  165 1   
   168  164  166 1   
   169  164  167 1   
   170  170  171 1   
   171  170  172 1   
   172  173  174 1   
   173  173  175 1   
   174  176  177 1   
   175  176  178 1   
   176  179  180 1   
   177  179  181 1   
@<TRIPOS>SUBSTRUCTURE
     1 MOL         1 TEMP              0 ****  ****    0 ROOT
