@<TRIPOS>MOLECULE
MOL
  182   178     1     0     0
SMALL
resp


@<TRIPOS>ATOM
      1 C1          2.4830   -3.9920    6.6390 c3        1 MOL     -0.415377
      2 C2          2.1280   -3.5820    5.2130 c         1 MOL      0.705870
      3 O1          0.9500   -3.8120    4.8530 o         1 MOL     -0.575625
      4 H1          1.8500   -3.4510    7.3410 hc        1 MOL      0.125098
      5 H2          2.3260   -5.0640    6.7590 hc        1 MOL      0.125098
      6 H3          3.5280   -3.7530    6.8360 hc        1 MOL      0.125098
      7 N1          3.1070   -3.0320    4.4270 n         1 MOL     -0.574378
      8 C3          3.0900   -2.6760    3.0090 c3        1 MOL      0.016631
      9 C4          3.4300   -3.7510    1.9860 c         1 MOL      0.595200
     10 O2          4.5370   -4.3350    2.0630 o         1 MOL     -0.544318
     11 C5          3.7730   -1.3480    2.7000 c3        1 MOL     -0.118177
     12 C6          3.4600   -0.7970    1.3050 c         1 MOL      0.596719
     13 O3          3.7520    0.4150    1.1620 o         1 MOL     -0.655965
     14 O4          3.1360   -1.4880    0.3130 o         1 MOL     -0.655965
     15 H4          4.0310   -3.0850    4.8400 hn        1 MOL      0.328323
     16 H5          2.0630   -2.3650    2.7970 h1        1 MOL      0.034729
     17 H6          4.8620   -1.4230    2.7620 hc        1 MOL      0.061829
     18 H7          3.5090   -0.5850    3.4390 hc        1 MOL      0.061829
     19 N2          2.5490   -4.0630    0.9730 n         1 MOL     -0.302660
     20 C7          2.7880   -5.1440   -0.0050 c3        1 MOL     -0.117126
     21 C8          3.9530   -4.9250   -0.9070 c         1 MOL      0.542228
     22 O5          4.4860   -5.8490   -1.4410 o         1 MOL     -0.597845
     23 C9          1.5310   -5.0970   -0.8600 c3        1 MOL      0.109625
     24 C10         1.4320   -6.3620   -1.7500 c3        1 MOL     -0.168882
     25 C11         0.1130   -6.2020   -2.5970 c3        1 MOL      0.063763
     26 C12         0.2960   -5.1890   -3.7310 c3        1 MOL      0.187179
     27 N3         -0.8740   -5.0750   -4.6320 n4        1 MOL     -0.387377
     28 H8          1.6440   -3.6290    1.0560 hn        1 MOL      0.112588
     29 H9          2.8110   -6.1270    0.4740 h1        1 MOL      0.108125
     30 H10         1.6690   -4.2210   -1.4860 hc        1 MOL      0.006664
     31 H11         0.6230   -4.9560   -0.2630 hc        1 MOL      0.006664
     32 H12         1.2480   -7.3230   -1.2600 hc        1 MOL      0.072255
     33 H13         2.2970   -6.3450   -2.3990 hc        1 MOL      0.072255
     34 H14        -0.7620   -5.8060   -2.0800 hc        1 MOL     -0.010118
     35 H15        -0.1480   -7.1200   -3.1360 hc        1 MOL     -0.010118
     36 H16         1.1220   -5.4720   -4.3890 hx        1 MOL      0.022947
     37 H17         0.5470   -4.2530   -3.2390 hx        1 MOL      0.022947
     38 H18        -0.9240   -4.1750   -5.1000 hn        1 MOL      0.283541
     39 H19        -0.6940   -5.6930   -5.4110 hn        1 MOL      0.283541
     40 H20        -1.7510   -5.1460   -4.1460 hn        1 MOL      0.283541
     41 N4          4.4460   -3.7530   -1.0670 n         1 MOL     -0.092607
     42 C13         5.5600   -3.3770   -1.9700 c3        1 MOL      0.005381
     43 C14         6.6020   -2.4250   -1.2690 c         1 MOL      0.312836
     44 O6          7.7050   -2.3240   -1.7420 o         1 MOL     -0.489883
     45 C15         4.9100   -2.6760   -3.1980 c3        1 MOL     -0.132447
     46 C16         4.0710   -1.5440   -2.7740 c         1 MOL      0.803500
     47 O7          4.5870   -0.5770   -2.2370 o         1 MOL     -0.784327
     48 O8          2.8690   -1.5390   -2.9940 o         1 MOL     -0.784327
     49 H21         4.0410   -3.0060   -0.5300 hn        1 MOL      0.097398
     50 H22         6.0090   -4.2900   -2.3630 h1        1 MOL      0.115560
     51 H23         4.1900   -3.3840   -3.6180 hc        1 MOL      0.027333
     52 H24         5.6140   -2.4270   -3.9900 hc        1 MOL      0.027333
     53 N5          6.2410   -1.7470   -0.1760 n         1 MOL      0.015034
     54 C17         7.1570   -0.9240    0.5970 c3        1 MOL     -0.128702
     55 C18         7.4240    0.4070    0.0310 c         1 MOL      0.625127
     56 O9          8.3740    1.0000    0.5060 o         1 MOL     -0.558357
     57 H25         5.2680   -1.7000    0.1230 hn        1 MOL     -0.113974
     58 H26         8.0970   -1.4420    0.8180 h1        1 MOL      0.093192
     59 H27         6.7290   -0.7590    1.5870 h1        1 MOL      0.093192
     60 N6          6.6340    0.9310   -0.9250 n         1 MOL     -0.463993
     61 C19         6.5340    2.3870   -1.2870 c3        1 MOL      0.137380
     62 C20         5.1310    2.9860   -1.2180 c         1 MOL      0.448000
     63 O10         4.1480    2.2520   -0.9420 o         1 MOL     -0.445639
     64 C21         7.1520    2.6370   -2.6570 c3        1 MOL     -0.288609
     65 C22         8.5160    1.9590   -2.9580 c         1 MOL      0.618878
     66 N7          8.5560    1.5190   -4.1750 n         1 MOL     -0.672713
     67 O11         9.3520    1.8800   -2.0750 o         1 MOL     -0.468712
     68 H28         5.9410    0.3670   -1.4130 hn        1 MOL      0.392250
     69 H29         7.1900    2.9820   -0.6610 h1        1 MOL      0.060661
     70 H30         7.3890    3.6840   -2.8480 hc        1 MOL      0.043765
     71 H31         6.5000    2.3050   -3.4660 hc        1 MOL      0.043765
     72 H32         7.7590    1.8200   -4.7270 hn        1 MOL      0.318574
     73 H33         9.4340    1.6640   -4.6540 hn        1 MOL      0.318574
     74 N8          5.0200    4.3100   -1.2880 n         1 MOL     -0.413853
     75 C23         3.7740    5.1040   -1.2890 c3        1 MOL     -0.172633
     76 C24         2.8250    4.9640   -0.1430 c         1 MOL      0.797303
     77 O12         3.2470    5.2210    1.0020 o         1 MOL     -0.546769
     78 H34         5.9330    4.7040   -1.1470 hn        1 MOL      0.341996
     79 H35         3.2390    4.8990   -2.2260 h1        1 MOL      0.088192
     80 H36         4.0820    6.1500   -1.2990 h1        1 MOL      0.088192
     81 N9          1.5640    4.6470   -0.3600 n         1 MOL     -0.851840
     82 C25         0.5990    4.4200    0.7300 c3        1 MOL      0.296163
     83 C26         0.6890    2.9890    1.2630 c         1 MOL      0.759024
     84 O13         1.3040    2.1640    0.5800 o         1 MOL     -0.635326
     85 C27        -0.8650    4.8030    0.3380 c3        1 MOL     -0.112092
     86 C28        -1.0300    6.2680    0.1770 ca        1 MOL      0.215587
     87 C29        -0.9640    6.9110   -1.0560 ca        1 MOL     -0.277868
     88 C30        -1.3480    7.0290    1.3120 ca        1 MOL     -0.277868
     89 C31        -1.1240    8.3070   -1.1060 ca        1 MOL     -0.156328
     90 C32        -1.5740    8.4320    1.3310 ca        1 MOL     -0.156328
     91 C33        -1.3490    9.1170    0.0660 ca        1 MOL      0.216562
     92 O14        -1.4720   10.4780   -0.0780 oh        1 MOL     -0.415249
     93 H37         1.2190    4.6870   -1.3130 hn        1 MOL      0.341795
     94 H38         0.8650    5.0540    1.5800 h1        1 MOL      0.052638
     95 H39        -1.6670    4.5190    1.0160 hc        1 MOL      0.031743
     96 H40        -1.2170    4.3110   -0.5760 hc        1 MOL      0.031743
     97 H41        -0.7070    6.3900   -1.9700 ha        1 MOL      0.136131
     98 H42        -1.5150    6.4720    2.2250 ha        1 MOL      0.136131
     99 H43        -1.0390    8.8390   -2.0400 ha        1 MOL      0.150431
    100 H44        -1.8370    9.0240    2.1960 ha        1 MOL      0.150431
    101 H45        -1.4580   10.7450   -1.0020 ho        1 MOL      0.335590
    102 N10         0.1330    2.7880    2.4590 n         1 MOL     -0.952274
    103 C34         0.0230    1.5060    3.1400 c3        1 MOL      0.315278
    104 C35        -0.2810    0.1960    2.3020 c         1 MOL      0.344714
    105 O15         0.5370   -0.2730    1.5180 o         1 MOL     -0.341365
    106 C36         1.2720    1.2240    3.9890 c3        1 MOL      0.417897
    107 C37         1.2810    0.0900    5.0620 c3        1 MOL     -0.226638
    108 C38         1.7960    2.5780    4.5650 c3        1 MOL     -0.445640
    109 C39         0.2830    0.2800    6.2360 c3        1 MOL     -0.187143
    110 H46        -0.2660    3.5600    2.9800 hn        1 MOL      0.391232
    111 H47        -0.8260    1.6300    3.8100 h1        1 MOL      0.021509
    112 H48         2.0410    0.8680    3.3020 hc        1 MOL     -0.023422
    113 H49         2.2510   -0.0400    5.5380 hc        1 MOL      0.088181
    114 H50         0.8790   -0.8050    4.5760 hc        1 MOL      0.088181
    115 H51         2.3230    3.2110    3.8490 hc        1 MOL      0.107942
    116 H52         0.9600    3.0530    5.0740 hc        1 MOL      0.107942
    117 H53         2.6320    2.3200    5.2250 hc        1 MOL      0.107942
    118 H54         0.6800    1.1530    6.7630 hc        1 MOL      0.040632
    119 H55        -0.7030    0.5760    5.8660 hc        1 MOL      0.040632
    120 H56         0.3050   -0.5930    6.8840 hc        1 MOL      0.040632
    121 N11        -1.4130   -0.3680    2.5820 n         1 MOL     -0.488605
    122 C40        -1.8750   -1.6490    1.8910 c3        1 MOL      0.184091
    123 C41        -3.3860   -1.5030    1.5690 c         1 MOL      0.427602
    124 O16        -4.2320   -1.9390    2.3910 o         1 MOL     -0.519189
    125 C42        -1.6660   -2.9190    2.7020 c3        1 MOL      0.246622
    126 O17        -0.2800   -3.3010    2.5110 oh        1 MOL     -0.596707
    127 H57        -2.0960    0.1540    3.1130 hn        1 MOL      0.299720
    128 H58        -1.4430   -1.7820    0.9010 h1        1 MOL      0.004121
    129 H59        -2.3430   -3.7290    2.4310 h1        1 MOL      0.015952
    130 H60        -1.8170   -2.7830    3.7760 h1        1 MOL      0.015952
    131 H61         0.1080   -3.4950    3.3630 ho        1 MOL      0.404094
    132 N12        -3.7000   -0.9240    0.4260 n         1 MOL     -0.458858
    133 C43        -5.0370   -0.9300   -0.2240 c3        1 MOL      0.045919
    134 C44        -4.9480   -0.4180   -1.6460 c         1 MOL      0.541602
    135 O18        -3.8890    0.1340   -2.0630 o         1 MOL     -0.561393
    136 C45        -5.9220   -0.0170    0.6600 c3        1 MOL     -0.072383
    137 H62        -2.9240   -0.6450   -0.1470 hn        1 MOL      0.235414
    138 H63        -5.4700   -1.9230   -0.0960 h1        1 MOL      0.103458
    139 H64        -6.9380    0.0340    0.2660 hc        1 MOL      0.050824
    140 H65        -6.0880   -0.3970    1.6650 hc        1 MOL      0.050824
    141 H66        -5.4990    0.9820    0.7300 hc        1 MOL      0.050824
    142 N13        -6.0300   -0.4690   -2.4480 n         1 MOL     -0.602891
    143 C46        -7.3050   -1.2120   -2.2300 c3        1 MOL      0.433570
    144 C47        -8.6060   -0.5110   -2.6410 c         1 MOL      0.313816
    145 O19        -8.5420    0.3630   -3.4710 o         1 MOL     -0.514710
    146 C48        -7.2080   -2.4390   -3.2070 c3        1 MOL     -0.434746
    147 H67        -5.8590   -0.0360   -3.3480 hn        1 MOL      0.340628
    148 H68        -7.2490   -1.6600   -1.2410 h1        1 MOL      0.002512
    149 H69        -6.4380   -3.1290   -2.8400 hc        1 MOL      0.116840
    150 H70        -8.1050   -3.0570   -3.2060 hc        1 MOL      0.116840
    151 H71        -6.9980   -2.1210   -4.2240 hc        1 MOL      0.116840
    152 N14        -9.7800   -0.6660   -2.0750 n         1 MOL     -0.269436
    153 C49       -10.1410   -1.3630   -0.7870 c3        1 MOL     -0.213737
    154 C50        -9.5080   -0.7270    0.4170 c         1 MOL      0.580955
    155 O20        -8.8840   -1.3790    1.2380 o         1 MOL     -0.528407
    156 C51       -11.6520   -1.5490   -0.5780 c3        1 MOL      0.129011
    157 C52       -12.4490   -0.2410   -0.9170 c3        1 MOL     -0.326496
    158 C53       -13.9870   -0.3950   -0.6810 c         1 MOL      0.680199
    159 O21       -14.4740   -0.0150    0.4330 o         1 MOL     -0.642527
    160 O22       -14.7070   -0.9580   -1.5250 o         1 MOL     -0.642527
    161 H72       -10.4520    0.0180   -2.4070 hn        1 MOL      0.263277
    162 H73        -9.6390   -2.3310   -0.8490 h1        1 MOL      0.077937
    163 H74       -11.9300   -1.8960    0.4220 hc        1 MOL      0.038017
    164 H75       -11.8910   -2.3400   -1.2970 hc        1 MOL      0.038017
    165 H76       -12.1650    0.1400   -1.8930 hc        1 MOL      0.060898
    166 H77       -12.0090    0.5140   -0.2610 hc        1 MOL      0.060898
    167 N15        -9.6480    0.6520    0.5400 n         1 MOL     -0.286333
    168 C54        -9.2840    1.5290    1.6320 c3        1 MOL     -0.391641
    169 H78        -9.7050    2.5190    1.4580 h1        1 MOL      0.152591
    170 H79        -9.6750    1.1270    2.5670 h1        1 MOL      0.152591
    171 H80        -8.1980    1.6020    1.6940 h1        1 MOL      0.152591
    172 H81       -10.2980    1.0380   -0.1390 hn        1 MOL      0.250414
    173 Ca1         2.4190    0.4730   -1.2570 Ca        1 MOL      1.783218
    174 O23         0.2050    1.7950   -1.7940 oh        1 MOL     -0.870161
    175 H82        -0.6020    1.7690   -1.2720 ho        1 MOL      0.423144
    176 H83         0.1220    2.5950   -2.3270 ho        1 MOL      0.423144
    177 O24         0.4190   -1.3330   -1.0190 oh        1 MOL     -0.870161
    178 H84        -0.3860   -1.8230   -1.1940 ho        1 MOL      0.423144
    179 H85         0.4260   -1.1980   -0.0800 ho        1 MOL      0.423144
    180 O25         2.9130    1.8040   -3.6700 oh        1 MOL     -0.870161
    181 H86         3.4340    2.4630   -4.1200 ho        1 MOL      0.423144
    182 H87         2.1900    1.6120   -4.2750 ho        1 MOL      0.423144
@<TRIPOS>BOND
     1    1    2 1   
     2    1    4 1   
     3    1    5 1   
     4    1    6 1   
     5    2    3 2   
     6    2    7 1   
     7    7    8 1   
     8    7   15 1   
     9    8    9 1   
    10    8   11 1   
    11    8   16 1   
    12    9   10 2   
    13    9   19 1   
    14   11   12 1   
    15   11   17 1   
    16   11   18 1   
    17   12   13 1   
    18   12   14 1   
    19   19   20 1   
    20   19   28 1   
    21   20   21 1   
    22   20   23 1   
    23   20   29 1   
    24   21   22 2   
    25   21   41 1   
    26   23   24 1   
    27   23   30 1   
    28   23   31 1   
    29   24   25 1   
    30   24   32 1   
    31   24   33 1   
    32   25   26 1   
    33   25   34 1   
    34   25   35 1   
    35   26   27 1   
    36   26   36 1   
    37   26   37 1   
    38   27   38 1   
    39   27   39 1   
    40   27   40 1   
    41   41   42 1   
    42   41   49 1   
    43   42   43 1   
    44   42   45 1   
    45   42   50 1   
    46   43   44 2   
    47   43   53 1   
    48   45   46 1   
    49   45   51 1   
    50   45   52 1   
    51   46   47 1   
    52   46   48 1   
    53   53   54 1   
    54   53   57 1   
    55   54   55 1   
    56   54   58 1   
    57   54   59 1   
    58   55   56 2   
    59   55   60 1   
    60   60   61 1   
    61   60   68 1   
    62   61   62 1   
    63   61   64 1   
    64   61   69 1   
    65   62   63 2   
    66   62   74 1   
    67   64   65 1   
    68   64   70 1   
    69   64   71 1   
    70   65   66 1   
    71   65   67 2   
    72   66   72 1   
    73   66   73 1   
    74   74   75 1   
    75   74   78 1   
    76   75   76 1   
    77   75   79 1   
    78   75   80 1   
    79   76   77 2   
    80   76   81 1   
    81   81   82 1   
    82   81   93 1   
    83   82   83 1   
    84   82   85 1   
    85   82   94 1   
    86   83   84 2   
    87   83  102 1   
    88   85   86 1   
    89   85   95 1   
    90   85   96 1   
    91   86   87 ar  
    92   86   88 ar  
    93   87   89 ar  
    94   87   97 1   
    95   88   90 ar  
    96   88   98 1   
    97   89   91 ar  
    98   89   99 1   
    99   90   91 ar  
   100   90  100 1   
   101   91   92 1   
   102   92  101 1   
   103  102  103 1   
   104  102  110 1   
   105  103  104 1   
   106  103  106 1   
   107  103  111 1   
   108  104  105 2   
   109  104  121 1   
   110  106  107 1   
   111  106  108 1   
   112  106  112 1   
   113  107  109 1   
   114  107  113 1   
   115  107  114 1   
   116  108  115 1   
   117  108  116 1   
   118  108  117 1   
   119  109  118 1   
   120  109  119 1   
   121  109  120 1   
   122  121  122 1   
   123  121  127 1   
   124  122  123 1   
   125  122  125 1   
   126  122  128 1   
   127  123  124 2   
   128  123  132 1   
   129  125  126 1   
   130  125  129 1   
   131  125  130 1   
   132  126  131 1   
   133  132  133 1   
   134  132  137 1   
   135  133  134 1   
   136  133  136 1   
   137  133  138 1   
   138  134  135 2   
   139  134  142 1   
   140  136  139 1   
   141  136  140 1   
   142  136  141 1   
   143  142  143 1   
   144  142  147 1   
   145  143  144 1   
   146  143  146 1   
   147  143  148 1   
   148  144  145 2   
   149  144  152 1   
   150  146  149 1   
   151  146  150 1   
   152  146  151 1   
   153  152  153 1   
   154  152  161 1   
   155  153  154 1   
   156  153  156 1   
   157  153  162 1   
   158  154  155 2   
   159  154  167 1   
   160  156  157 1   
   161  156  163 1   
   162  156  164 1   
   163  157  158 1   
   164  157  165 1   
   165  157  166 1   
   166  158  159 1   
   167  158  160 1   
   168  167  168 1   
   169  167  172 1   
   170  168  169 1   
   171  168  170 1   
   172  168  171 1   
   173  174  175 1   
   174  174  176 1   
   175  177  178 1   
   176  177  179 1   
   177  180  181 1   
   178  180  182 1   
@<TRIPOS>SUBSTRUCTURE
     1 MOL         1 TEMP              0 ****  ****    0 ROOT
