@<TRIPOS>MOLECULE
MOL
  189   185     1     0     0
SMALL
resp


@<TRIPOS>ATOM
      1 C1         -6.7740   -2.6800    5.2070 c3        1 MOL     -0.255489
      2 C2         -6.2260   -2.3160    3.7860 c         1 MOL      0.712460
      3 O1         -6.1040   -3.1650    2.9270 o         1 MOL     -0.565609
      4 H1         -7.4530   -3.5290    5.1270 hc        1 MOL      0.064362
      5 H2         -5.9430   -2.9410    5.8620 hc        1 MOL      0.064362
      6 H3         -7.3100   -1.8260    5.6200 hc        1 MOL      0.064362
      7 N1         -5.8610   -1.0340    3.5850 n         1 MOL     -0.558373
      8 C3         -5.5270   -0.4420    2.2280 c3        1 MOL      0.156086
      9 C4         -4.1090   -0.6070    1.7460 c         1 MOL      0.075091
     10 O2         -3.7480    0.0280    0.6890 o         1 MOL     -0.132324
     11 C5         -5.8820    1.0310    2.3740 c3        1 MOL     -0.070640
     12 C6         -5.2810    1.7430    3.5970 c         1 MOL      0.630665
     13 O3         -4.1260    2.2150    3.4110 o         1 MOL     -0.637134
     14 O4         -5.9810    1.8520    4.6490 o         1 MOL     -0.637134
     15 H4         -6.1080   -0.4080    4.3410 hn        1 MOL      0.283606
     16 H5         -6.1050   -0.9160    1.4410 h1        1 MOL      0.109095
     17 H6         -6.9700    1.0030    2.3860 hc        1 MOL      0.002098
     18 H7         -5.6310    1.6030    1.4830 hc        1 MOL      0.002098
     19 N2         -3.2370   -1.2580    2.5930 n         1 MOL     -0.324099
     20 C7         -1.7250   -1.2170    2.5070 c3        1 MOL      0.152658
     21 C8         -1.1910   -2.5040    1.9390 c         1 MOL      0.428963
     22 O5         -1.7710   -3.5540    2.2230 o         1 MOL     -0.520394
     23 C9         -1.1950   -0.9680    3.8880 c3        1 MOL     -0.322968
     24 C10        -1.6530    0.3170    4.5010 c3        1 MOL      0.137770
     25 C11        -0.9730    0.8560    5.7940 c3        1 MOL     -0.019597
     26 C12        -1.8350    1.9190    6.4240 c3        1 MOL     -0.079359
     27 N3         -2.1740    3.0460    5.5120 n4        1 MOL     -0.372157
     28 H8         -3.6010   -1.7680    3.3890 hn        1 MOL      0.281715
     29 H9         -1.4840   -0.4840    1.7390 h1        1 MOL      0.186355
     30 H10        -0.1070   -1.0160    3.7820 hc        1 MOL      0.106717
     31 H11        -1.5310   -1.8020    4.5010 hc        1 MOL      0.106717
     32 H12        -2.7120    0.3000    4.7810 hc        1 MOL      0.003979
     33 H13        -1.6080    1.0900    3.7340 hc        1 MOL      0.003979
     34 H14         0.0370    1.1930    5.5630 hc        1 MOL      0.039575
     35 H15        -0.8390    0.0920    6.5590 hc        1 MOL      0.039575
     36 H16        -1.2170    2.3250    7.2200 hx        1 MOL      0.103423
     37 H17        -2.6670    1.3650    6.8650 hx        1 MOL      0.103423
     38 H18        -2.6820    2.7470    4.6940 hn        1 MOL      0.329978
     39 H19        -2.6650    3.8080    5.9600 hn        1 MOL      0.329978
     40 H20        -1.3130    3.4410    5.1650 hn        1 MOL      0.329978
     41 N4         -0.0850   -2.5480    1.1910 n         1 MOL     -0.323963
     42 C13         0.7150   -1.4860    0.6260 c3        1 MOL     -0.124149
     43 C14         1.1940   -0.3540    1.6090 c         1 MOL      0.232195
     44 O6          0.6400    0.7340    1.7410 o         1 MOL     -0.491607
     45 C15         0.2120   -0.9390   -0.7120 c3        1 MOL     -0.036236
     46 C16         0.1280   -2.0470   -1.7520 c         1 MOL      0.530606
     47 O7          0.8770   -3.0610   -1.6970 o         1 MOL     -0.752465
     48 O8         -0.6900   -1.8470   -2.6550 o         1 MOL     -0.752465
     49 H21         0.0860   -3.4660    0.8180 hn        1 MOL      0.233061
     50 H22         1.6280   -2.0410    0.4050 h1        1 MOL      0.086625
     51 H23         0.9440   -0.2360   -1.0940 hc        1 MOL      0.134092
     52 H24        -0.7320   -0.4080   -0.5900 hc        1 MOL      0.134092
     53 N5          2.3630   -0.5150    2.1780 n         1 MOL     -0.164020
     54 C17         3.2680   -1.6150    2.1610 c3        1 MOL     -0.149124
     55 C18         4.3380   -1.5750    3.2520 c         1 MOL      0.517054
     56 O9          4.3150   -0.7180    4.1040 o         1 MOL     -0.559131
     57 H25         2.6430    0.2170    2.8100 hn        1 MOL      0.270102
     58 H26         3.7250   -1.6100    1.1700 h1        1 MOL      0.131674
     59 H27         2.7410   -2.5600    2.2860 h1        1 MOL      0.131674
     60 N6          5.2890   -2.4420    3.2800 n         1 MOL     -0.390617
     61 C19         5.5660   -3.4960    2.3480 c3        1 MOL      0.061727
     62 C20         6.4030   -2.9520    1.1640 c         1 MOL      0.555406
     63 O10         7.1080   -1.9420    1.2280 o         1 MOL     -0.459799
     64 C21         6.2270   -4.7450    3.0080 c3        1 MOL     -0.186264
     65 C22         7.5550   -4.4330    3.5660 c         1 MOL      0.709421
     66 O11         8.6120   -4.5210    2.8900 o         1 MOL     -0.658329
     67 O12         7.5330   -3.9950    4.7440 o         1 MOL     -0.658329
     68 H28         5.9710   -2.3010    4.0240 hn        1 MOL      0.305617
     69 H29         4.5750   -3.8320    2.0520 h1        1 MOL     -0.001353
     70 H30         6.3610   -5.4810    2.2240 hc        1 MOL      0.023359
     71 H31         5.5780   -5.1370    3.8000 hc        1 MOL      0.023359
     72 N7          6.3750   -3.7130    0.0880 n         1 MOL     -0.388707
     73 C23         7.1240   -3.4800   -1.2060 c3        1 MOL     -0.261469
     74 C24         6.6010   -2.2310   -1.9820 c         1 MOL      0.435085
     75 O13         7.1230   -1.8000   -3.0400 o         1 MOL     -0.583629
     76 H32         5.8970   -4.6000    0.1070 hn        1 MOL      0.270530
     77 H33         7.0920   -4.3990   -1.7860 h1        1 MOL      0.170715
     78 H34         8.1660   -3.3050   -0.9480 h1        1 MOL      0.170715
     79 N8          5.6220   -1.5100   -1.4670 n         1 MOL     -0.090646
     80 C25         5.0970   -0.1870   -2.0670 c3        1 MOL      0.039080
     81 C26         5.2650    0.8260   -0.9450 c         1 MOL      0.282045
     82 O14         4.8080    0.5800    0.2020 o         1 MOL     -0.401994
     83 C27         3.5990   -0.3770   -2.4790 c3        1 MOL      0.244258
     84 C28         3.2270   -1.2410   -3.6610 c3        1 MOL     -0.525111
     85 O15         3.3480    0.9500   -2.9620 oh        1 MOL     -0.584777
     86 H35         5.2110   -1.8230   -0.6000 hn        1 MOL     -0.003280
     87 H36         5.6900    0.0870   -2.9440 h1        1 MOL      0.126085
     88 H37         3.0480   -0.6190   -1.5760 h1        1 MOL      0.087165
     89 H38         2.4470    1.1590   -2.7220 ho        1 MOL      0.377860
     90 H39         2.2730   -0.8540   -4.0180 hc        1 MOL      0.144399
     91 H40         3.9410   -1.0260   -4.4540 hc        1 MOL      0.144399
     92 H41         3.0350   -2.2970   -3.4470 hc        1 MOL      0.144399
     93 N9          5.8250    1.9730   -1.3480 n         1 MOL     -0.192275
     94 C29         6.1150    3.0820   -0.4320 c3        1 MOL     -0.098044
     95 C30         4.7960    3.6180    0.1350 c         1 MOL      0.283782
     96 O16         4.8100    4.0870    1.2650 o         1 MOL     -0.483480
     97 C31         7.0420    4.1540   -0.9310 c3        1 MOL      0.188634
     98 C32         6.4970    4.8940   -2.1770 c3        1 MOL      0.068901
     99 C33         8.4570    3.7990   -1.1150 c3        1 MOL     -0.201705
    100 C34         7.0560    6.2830   -2.6120 c3        1 MOL     -0.421613
    101 H42         6.1890    2.0060   -2.3000 hn        1 MOL      0.224462
    102 H43         6.6910    2.7120    0.4190 h1        1 MOL      0.142793
    103 H44         7.1110    4.8270   -0.0780 hc        1 MOL      0.024889
    104 H45         5.4000    4.9560   -2.2090 hc        1 MOL      0.004568
    105 H46         6.5430    4.1310   -2.9580 hc        1 MOL      0.004568
    106 H47         8.6220    3.3240   -2.0900 hc        1 MOL      0.045067
    107 H48         8.9610    4.7620   -1.1320 hc        1 MOL      0.045067
    108 H49         8.8440    3.0910   -0.3830 hc        1 MOL      0.045067
    109 H50         7.9480    6.2300   -3.2440 hc        1 MOL      0.111230
    110 H51         6.2150    6.8020   -3.0710 hc        1 MOL      0.111230
    111 H52         7.3530    6.9360   -1.7930 hc        1 MOL      0.111230
    112 N10         3.6790    3.5710   -0.6360 n         1 MOL     -0.077973
    113 C35         2.3600    4.2150   -0.2740 c3        1 MOL     -0.053126
    114 C36         1.2160    3.2890   -0.4760 c         1 MOL      0.625469
    115 O17         1.3000    2.3860   -1.3230 o         1 MOL     -0.493805
    116 C37         2.1030    5.4560   -1.0860 c3        1 MOL      0.210564
    117 C38         2.2480    5.2860   -2.6590 c3        1 MOL     -0.181077
    118 O18         2.9420    6.5190   -0.7390 oh        1 MOL     -0.583102
    119 H53         3.6770    3.0230   -1.4870 hn        1 MOL      0.072567
    120 H54         2.3570    4.4190    0.8010 h1        1 MOL      0.079783
    121 H55         1.1500    5.8910   -0.7840 h1        1 MOL      0.011261
    122 H56         2.5600    6.9370    0.0320 ho        1 MOL      0.381383
    123 H57         1.8600    6.0940   -3.2930 hc        1 MOL      0.066803
    124 H58         3.3010    5.2470   -2.9550 hc        1 MOL      0.066803
    125 H59         1.7020    4.4020   -2.9850 hc        1 MOL      0.066803
    126 N11         0.0860    3.4480    0.2190 n         1 MOL     -0.622041
    127 C39        -1.2170    2.7160    0.1030 c3        1 MOL     -0.057403
    128 C40        -1.8100    2.7580   -1.3050 c         1 MOL      0.521556
    129 O19        -1.5070    3.6290   -2.1780 o         1 MOL     -0.523702
    130 C41        -2.2760    3.3210    1.0380 c3        1 MOL      0.634484
    131 C42        -2.6840    4.7830    0.6770 c3        1 MOL     -0.466738
    132 O20        -2.0420    3.2980    2.4120 oh        1 MOL     -0.662423
    133 H60         0.1700    4.2230    0.8600 hn        1 MOL      0.341158
    134 H61        -1.1830    1.6950    0.4740 h1        1 MOL      0.152473
    135 H62        -3.2060    2.7530    0.9710 h1        1 MOL      0.226311
    136 H63        -2.8520    2.8860    2.7240 ho        1 MOL      0.229000
    137 H64        -3.6300    4.8950    1.2090 hc        1 MOL      0.085001
    138 H65        -1.8520    5.3530    1.0700 hc        1 MOL      0.085001
    139 H66        -2.9100    4.8440   -0.3850 hc        1 MOL      0.085001
    140 N12        -2.7280    1.7840   -1.4730 n         1 MOL      0.034021
    141 C43        -3.4750    1.7560   -2.7260 c3        1 MOL     -0.051335
    142 C44        -4.1360    0.4090   -3.0100 c         1 MOL      0.550599
    143 O21        -4.7770    0.2940   -4.0390 o         1 MOL     -0.601103
    144 C45        -4.5910    2.7860   -2.6810 c3        1 MOL     -0.183354
    145 C46        -5.4790    2.6930   -1.4100 c3        1 MOL      0.301352
    146 C47        -6.7500    3.5300   -1.5920 c3        1 MOL     -0.268507
    147 C48        -6.5230    5.0740   -1.6810 c3        1 MOL      0.156513
    148 N13        -7.7990    5.8850   -1.4530 n4        1 MOL     -0.311923
    149 H67        -3.0590    1.3020   -0.6510 hn        1 MOL     -0.930204
    150 H68        -2.8920    1.9850   -3.6130 h1        1 MOL      0.120139
    151 H69        -5.2570    2.5020   -3.5010 hc        1 MOL      0.060401
    152 H70        -4.2470    3.8180   -2.7550 hc        1 MOL      0.060401
    153 H71        -4.9370    3.0420   -0.5300 hc        1 MOL     -0.014612
    154 H72        -5.8030    1.6530   -1.2810 hc        1 MOL     -0.014612
    155 H73        -7.4210    3.3680   -0.7470 hc        1 MOL      0.086295
    156 H74        -7.2640    3.1500   -2.4720 hc        1 MOL      0.086295
    157 H75        -6.1340    5.3020   -2.6720 hx        1 MOL      0.043618
    158 H76        -5.7830    5.4320   -0.9700 hx        1 MOL      0.043618
    159 H77        -7.5750    6.8480   -1.6400 hn        1 MOL      0.272134
    160 H78        -8.5430    5.6090   -2.0830 hn        1 MOL      0.272134
    161 H79        -8.1030    5.8260   -0.5020 hn        1 MOL      0.272134
    162 N14        -3.9210   -0.5620   -2.1360 n         1 MOL      0.054092
    163 C49        -4.5660   -1.9130   -2.1390 c3        1 MOL     -0.522893
    164 C50        -6.0970   -1.9990   -2.0430 c         1 MOL      0.552173
    165 O22        -6.7540   -1.3740   -1.2370 o         1 MOL     -0.500315
    166 C51        -3.8440   -2.8270   -1.1490 c3        1 MOL     -0.177297
    167 C52        -4.1620   -4.3350   -1.3220 c3        1 MOL     -0.467401
    168 C53        -4.1320   -4.9110   -2.7430 c         1 MOL      0.543502
    169 O23        -3.1440   -4.7840   -3.4890 o         1 MOL     -0.646954
    170 O24        -5.1090   -5.5320   -3.2650 o         1 MOL     -0.646954
    171 H80        -3.3960   -0.3350   -1.3090 hn        1 MOL      0.296903
    172 H81        -4.2580   -2.3130   -3.1050 h1        1 MOL      0.181937
    173 H82        -4.2450   -2.4860   -0.1930 hc        1 MOL      0.149310
    174 H83        -2.7890   -2.6170   -1.2930 hc        1 MOL      0.149310
    175 H84        -5.1470   -4.4100   -0.8580 hc        1 MOL      0.192362
    176 H85        -3.5220   -4.9580   -0.6910 hc        1 MOL      0.192362
    177 N15        -6.6720   -2.8040   -2.9400 n         1 MOL     -0.299959
    178 C54        -8.1330   -3.1120   -2.9270 c3        1 MOL      0.096888
    179 H86        -8.3280   -3.9160   -2.2180 h1        1 MOL      0.022283
    180 H87        -8.6890   -2.2230   -2.6290 h1        1 MOL      0.022283
    181 H88        -8.4490   -3.4220   -3.9230 h1        1 MOL      0.022283
    182 H89        -6.1300   -3.1230   -3.7380 hn        1 MOL      0.321082
    183 Ca1        -0.5940   -4.4000   -3.5170 Ca        1 MOL      1.710647
    184 O25        -1.7030   -2.9670   -5.6350 oh        1 MOL     -0.861550
    185 H90        -2.1890   -2.1490   -5.6660 ho        1 MOL      0.433982
    186 H91        -1.4660   -3.1490   -6.5370 ho        1 MOL      0.433982
    187 O26         1.5160   -3.8750   -5.1250 oh        1 MOL     -0.861550
    188 H92         2.4280   -4.0900   -4.9170 ho        1 MOL      0.433982
    189 H93         1.5690   -3.2030   -5.8040 ho        1 MOL      0.433982
@<TRIPOS>BOND
     1    1    2 1   
     2    1    4 1   
     3    1    5 1   
     4    1    6 1   
     5    2    3 2   
     6    2    7 1   
     7    7    8 1   
     8    7   15 1   
     9    8    9 1   
    10    8   11 1   
    11    8   16 1   
    12    9   10 2   
    13    9   19 1   
    14   11   12 1   
    15   11   17 1   
    16   11   18 1   
    17   12   13 1   
    18   12   14 1   
    19   19   20 1   
    20   19   28 1   
    21   20   21 1   
    22   20   23 1   
    23   20   29 1   
    24   21   22 2   
    25   21   41 1   
    26   23   24 1   
    27   23   30 1   
    28   23   31 1   
    29   24   25 1   
    30   24   32 1   
    31   24   33 1   
    32   25   26 1   
    33   25   34 1   
    34   25   35 1   
    35   26   27 1   
    36   26   36 1   
    37   26   37 1   
    38   27   38 1   
    39   27   39 1   
    40   27   40 1   
    41   41   42 1   
    42   41   49 1   
    43   42   43 1   
    44   42   45 1   
    45   42   50 1   
    46   43   44 2   
    47   43   53 1   
    48   45   46 1   
    49   45   51 1   
    50   45   52 1   
    51   46   47 1   
    52   46   48 1   
    53   53   54 1   
    54   53   57 1   
    55   54   55 1   
    56   54   58 1   
    57   54   59 1   
    58   55   56 2   
    59   55   60 1   
    60   60   61 1   
    61   60   68 1   
    62   61   62 1   
    63   61   64 1   
    64   61   69 1   
    65   62   63 2   
    66   62   72 1   
    67   64   65 1   
    68   64   70 1   
    69   64   71 1   
    70   65   66 1   
    71   65   67 1   
    72   72   73 1   
    73   72   76 1   
    74   73   74 1   
    75   73   77 1   
    76   73   78 1   
    77   74   75 2   
    78   74   79 1   
    79   79   80 1   
    80   79   86 1   
    81   80   81 1   
    82   80   83 1   
    83   80   87 1   
    84   81   82 2   
    85   81   93 1   
    86   83   84 1   
    87   83   85 1   
    88   83   88 1   
    89   84   90 1   
    90   84   91 1   
    91   84   92 1   
    92   85   89 1   
    93   93   94 1   
    94   93  101 1   
    95   94   95 1   
    96   94   97 1   
    97   94  102 1   
    98   95   96 2   
    99   95  112 1   
   100   97   98 1   
   101   97   99 1   
   102   97  103 1   
   103   98  100 1   
   104   98  104 1   
   105   98  105 1   
   106   99  106 1   
   107   99  107 1   
   108   99  108 1   
   109  100  109 1   
   110  100  110 1   
   111  100  111 1   
   112  112  113 1   
   113  112  119 1   
   114  113  114 1   
   115  113  116 1   
   116  113  120 1   
   117  114  115 2   
   118  114  126 1   
   119  116  117 1   
   120  116  118 1   
   121  116  121 1   
   122  117  123 1   
   123  117  124 1   
   124  117  125 1   
   125  118  122 1   
   126  126  127 1   
   127  126  133 1   
   128  127  128 1   
   129  127  130 1   
   130  127  134 1   
   131  128  129 2   
   132  128  140 1   
   133  130  131 1   
   134  130  132 1   
   135  130  135 1   
   136  131  137 1   
   137  131  138 1   
   138  131  139 1   
   139  132  136 1   
   140  140  141 1   
   141  140  149 1   
   142  141  142 1   
   143  141  144 1   
   144  141  150 1   
   145  142  143 2   
   146  142  162 1   
   147  144  145 1   
   148  144  151 1   
   149  144  152 1   
   150  145  146 1   
   151  145  153 1   
   152  145  154 1   
   153  146  147 1   
   154  146  155 1   
   155  146  156 1   
   156  147  148 1   
   157  147  157 1   
   158  147  158 1   
   159  148  159 1   
   160  148  160 1   
   161  148  161 1   
   162  162  163 1   
   163  162  171 1   
   164  163  164 1   
   165  163  166 1   
   166  163  172 1   
   167  164  165 2   
   168  164  177 1   
   169  166  167 1   
   170  166  173 1   
   171  166  174 1   
   172  167  168 1   
   173  167  175 1   
   174  167  176 1   
   175  168  169 1   
   176  168  170 1   
   177  177  178 1   
   178  177  182 1   
   179  178  179 1   
   180  178  180 1   
   181  178  181 1   
   182  184  185 1   
   183  184  186 1   
   184  187  188 1   
   185  187  189 1   
@<TRIPOS>SUBSTRUCTURE
     1 MOL         1 TEMP              0 ****  ****    0 ROOT
