@<TRIPOS>MOLECULE
MOL
  195   189     1     0     0
SMALL
resp


@<TRIPOS>ATOM
      1 C1         -3.6390   -5.7000   -2.7220 c3        1 MOL     -0.490015
      2 C2         -4.1960   -4.8370   -1.5900 c         1 MOL      0.636122
      3 O1         -3.4800   -4.2560   -0.8160 o         1 MOL     -0.555552
      4 H1         -3.0810   -5.0720   -3.4160 hc        1 MOL      0.130451
      5 H2         -2.9770   -6.4600   -2.3080 hc        1 MOL      0.130451
      6 H3         -4.4610   -6.1810   -3.2510 hc        1 MOL      0.130451
      7 N1         -5.5820   -4.7350   -1.4440 n         1 MOL     -0.484917
      8 C3         -6.3930   -3.7340   -0.7150 c3        1 MOL      0.024965
      9 C4         -5.9150   -2.3120   -0.9530 c         1 MOL      0.594368
     10 O2         -5.8160   -1.5150   -0.0160 o         1 MOL     -0.579601
     11 C5         -6.8080   -4.1910    0.7450 c3        1 MOL     -0.181593
     12 C6         -5.6930   -4.7410    1.6540 c         1 MOL      0.674334
     13 O3         -4.7250   -3.9650    2.0810 o         1 MOL     -0.704849
     14 O4         -5.6910   -5.9570    2.0050 o         1 MOL     -0.704849
     15 H4         -6.1030   -5.2960   -2.1000 hn        1 MOL      0.277275
     16 H5         -7.3740   -3.6620   -1.1810 h1        1 MOL      0.088450
     17 H6         -7.4700   -5.0400    0.5340 hc        1 MOL      0.073569
     18 H7         -7.4740   -3.4190    1.1460 hc        1 MOL      0.073569
     19 N2         -5.7420   -1.9780   -2.2370 n         1 MOL     -0.432332
     20 C7         -5.4070   -0.5980   -2.8030 c3        1 MOL      0.080473
     21 C8         -6.3860    0.5470   -2.5020 c         1 MOL      0.508116
     22 O5         -7.0880    0.9040   -3.4610 o         1 MOL     -0.567425
     23 C9         -3.8740   -0.2160   -2.7890 c3        1 MOL      0.227801
     24 C10        -3.5640    1.2370   -3.2660 c3        1 MOL     -0.102727
     25 C11        -2.8520   -1.3000   -3.1970 c3        1 MOL      0.073860
     26 C12        -3.6940    1.3960   -4.7930 c3        1 MOL     -0.065163
     27 H8         -5.8790   -2.6810   -2.9510 hn        1 MOL      0.236683
     28 H9         -5.5590   -0.7800   -3.8720 h1        1 MOL      0.013125
     29 H10        -3.7870   -0.2120   -1.6970 hc        1 MOL     -0.219708
     30 H11        -2.5700    1.5740   -2.9930 hc        1 MOL      0.059246
     31 H12        -4.1670    1.9960   -2.7540 hc        1 MOL      0.059246
     32 H13        -2.8730   -2.1730   -2.5420 hc        1 MOL     -0.039966
     33 H14        -3.2090   -1.6530   -4.1630 hc        1 MOL     -0.039966
     34 H15        -1.8200   -0.9580   -3.3170 hc        1 MOL     -0.039966
     35 H16        -4.6990    1.2460   -5.1940 hc        1 MOL      0.004919
     36 H17        -3.4010    2.3720   -5.1710 hc        1 MOL      0.004919
     37 H18        -3.0160    0.6940   -5.2750 hc        1 MOL      0.004919
     38 N3         -6.4580    0.9950   -1.2780 n         1 MOL     -0.463793
     39 C13        -7.5080    1.8920   -0.8000 c3        1 MOL      0.186146
     40 C14        -7.1810    3.3830   -0.8480 c         1 MOL      0.583600
     41 O6         -7.7900    4.1570   -1.5850 o         1 MOL     -0.584767
     42 C15        -8.0190    1.5180    0.5740 c3        1 MOL     -0.147409
     43 C16        -9.1350    0.4920    0.7920 c         1 MOL      0.689604
     44 O7         -9.4640   -0.3160   -0.0740 o         1 MOL     -0.732326
     45 O8         -9.6720    0.5510    1.9080 o         1 MOL     -0.732326
     46 H19        -5.8990    0.5440   -0.5720 hn        1 MOL      0.398674
     47 H20        -8.3650    1.8660   -1.4650 h1        1 MOL      0.027433
     48 H21        -8.3730    2.4500    1.0220 hc        1 MOL      0.051007
     49 H22        -7.1590    1.2240    1.1700 hc        1 MOL      0.051007
     50 N4         -6.1490    3.9880   -0.1390 n         1 MOL     -0.589462
     51 C17        -5.2580    3.4240    0.8840 c3        1 MOL     -0.073504
     52 C18        -5.8360    3.5220    2.3170 c         1 MOL      0.639701
     53 O9         -7.0100    3.7130    2.5440 o         1 MOL     -0.549686
     54 H23        -6.0070    4.9820   -0.2620 hn        1 MOL      0.322491
     55 H24        -4.2920    3.9410    0.9020 h1        1 MOL      0.092421
     56 H25        -5.0660    2.3690    0.7280 h1        1 MOL      0.092421
     57 N5         -4.9480    3.4070    3.3040 n         1 MOL     -0.621268
     58 C19        -3.5140    2.9200    3.2110 c3        1 MOL      0.204635
     59 C20        -3.2480    1.4270    2.8890 c         1 MOL      0.528205
     60 O10        -4.0260    0.5800    3.2120 o         1 MOL     -0.543719
     61 C21        -2.8330    3.1020    4.6180 c3        1 MOL     -0.234309
     62 C22        -2.9010    4.4900    5.2860 c         1 MOL      0.720422
     63 O11        -2.6460    5.4870    4.5670 o         1 MOL     -0.726099
     64 O12        -3.0910    4.5560    6.5250 o         1 MOL     -0.726099
     65 H26        -5.3230    3.7640    4.1760 hn        1 MOL      0.350161
     66 H27        -2.9620    3.4930    2.4590 h1        1 MOL     -0.052539
     67 H28        -1.7730    2.8790    4.4380 hc        1 MOL      0.055288
     68 H29        -3.1610    2.3440    5.3190 hc        1 MOL      0.055288
     69 N6         -2.1350    1.0060    2.3090 n         1 MOL     -0.474283
     70 C23        -1.1100    1.8350    1.6670 c3        1 MOL     -0.140766
     71 C24        -1.4470    2.4160    0.1780 c         1 MOL      0.536822
     72 O13        -2.5630    2.3050   -0.2870 o         1 MOL     -0.485478
     73 H30        -2.1640    0.0440    2.0060 hn        1 MOL      0.370168
     74 H31        -0.2020    1.2400    1.6820 h1        1 MOL      0.080494
     75 H32        -0.9100    2.7360    2.2370 h1        1 MOL      0.080494
     76 N7         -0.5510    3.1330   -0.4830 n         1 MOL     -0.388071
     77 C25        -0.8020    3.8410   -1.7740 c3        1 MOL     -0.037904
     78 C26         0.3120    3.5190   -2.7690 c         1 MOL      0.492730
     79 O14         0.7520    4.3770   -3.6010 o         1 MOL     -0.551898
     80 C27        -0.8810    5.3530   -1.5090 c3        1 MOL      0.189144
     81 C28         0.2510    6.0050   -0.7340 c3        1 MOL     -0.240048
     82 C29        -0.0370    7.4470   -0.3410 c         1 MOL      0.572489
     83 N8         -0.7150    7.6740    0.8170 n         1 MOL     -0.712384
     84 O15         0.2320    8.3090   -1.1500 o         1 MOL     -0.531474
     85 H33         0.3500    3.3400   -0.0920 hn        1 MOL      0.251781
     86 H34        -1.7630    3.5030   -2.1650 h1        1 MOL      0.049224
     87 H35        -1.7690    5.7000   -0.9640 hc        1 MOL      0.006334
     88 H36        -0.9330    5.9670   -2.4110 hc        1 MOL      0.006334
     89 H37         1.0980    5.8960   -1.4050 hc        1 MOL      0.052254
     90 H38         0.5150    5.4220    0.1570 hc        1 MOL      0.052254
     91 H39        -0.8780    6.8610    1.3850 hn        1 MOL      0.352465
     92 H40        -0.8970    8.5940    1.1810 hn        1 MOL      0.352465
     93 N9          0.7900    2.2930   -2.6970 n         1 MOL     -0.203030
     94 C30         1.9700    1.7070   -3.3620 c3        1 MOL     -0.158259
     95 C31         3.3230    2.0630   -2.6550 c         1 MOL      0.642196
     96 O16         3.4120    1.9390   -1.4680 o         1 MOL     -0.546452
     97 C32         1.8110    0.1970   -3.6470 c3        1 MOL      0.339483
     98 C33         3.0760   -0.5320   -4.0930 c3        1 MOL     -0.180302
     99 C34         0.6730   -0.0300   -4.6870 c3        1 MOL     -0.180302
    100 H41         0.3710    1.7060   -1.9850 hn        1 MOL      0.156780
    101 H42         1.9290    2.2040   -4.3300 h1        1 MOL      0.026800
    102 H43         1.6140   -0.2780   -2.6850 hc        1 MOL     -0.000687
    103 H44         3.4850   -0.1010   -5.0030 hc        1 MOL      0.023431
    104 H45         3.7430   -0.4660   -3.2290 hc        1 MOL      0.023431
    105 H46         2.8050   -1.5650   -4.2940 hc        1 MOL      0.023431
    106 H47         0.9210    0.2790   -5.6960 hc        1 MOL      0.023431
    107 H48         0.5130   -1.1110   -4.6410 hc        1 MOL      0.023431
    108 H49        -0.1760    0.5130   -4.2800 hc        1 MOL      0.023431
    109 N10         4.2740    2.4250   -3.4010 n         1 MOL     -0.453136
    110 C35         5.5990    2.8290   -2.9790 c3        1 MOL      0.059317
    111 C36         6.4570    1.8300   -2.1810 c         1 MOL      0.506636
    112 O17         7.6130    1.7350   -2.5300 o         1 MOL     -0.566251
    113 C37         5.4290    4.2430   -2.2930 c3        1 MOL     -0.352083
    114 C38         6.6400    4.6860   -1.4950 c         1 MOL      0.576328
    115 N11         7.8090    4.8390   -2.1320 n         1 MOL     -0.732533
    116 O18         6.6060    4.6780   -0.2810 o         1 MOL     -0.499739
    117 H50         4.0090    2.5110   -4.3770 hn        1 MOL      0.298205
    118 H51         6.1200    2.9570   -3.9260 h1        1 MOL      0.079391
    119 H52         4.7330    4.2350   -1.4600 hc        1 MOL      0.137093
    120 H53         5.1460    4.9840   -3.0300 hc        1 MOL      0.137093
    121 H54         7.7900    4.8260   -3.1430 hn        1 MOL      0.341982
    122 H55         8.6320    5.0750   -1.5960 hn        1 MOL      0.341982
    123 N12         5.8470    1.0890   -1.1770 n         1 MOL     -0.219447
    124 C39         6.6520    0.2900   -0.2350 c3        1 MOL     -0.092256
    125 C40         5.8640   -0.9800    0.1870 c         1 MOL      0.526636
    126 O19         4.5890   -0.8520    0.2740 o         1 MOL     -0.458033
    127 C41         7.0210    1.1380    1.0530 c3        1 MOL      0.086318
    128 C42         8.4890    1.0410    1.4250 ca        1 MOL      0.003778
    129 C43         8.8860    0.6180    2.7010 ca        1 MOL     -0.134158
    130 C44         9.4600    1.4330    0.5120 ca        1 MOL     -0.134158
    131 C45        10.3030    0.4420    3.0320 ca        1 MOL     -0.276481
    132 C46        10.8450    1.2790    0.8200 ca        1 MOL     -0.276481
    133 C47        11.2390    0.6470    2.0130 ca        1 MOL      0.293009
    134 O20        12.5540    0.5030    2.1460 oh        1 MOL     -0.426192
    135 H56         4.8400    1.0130   -1.1150 hn        1 MOL      0.198626
    136 H57         7.5050   -0.1420   -0.7790 h1        1 MOL      0.027113
    137 H58         6.4300    0.8900    1.9300 hc        1 MOL      0.046172
    138 H59         6.7220    2.1840    0.9540 hc        1 MOL      0.046172
    139 H60         8.0460    0.3540    3.3270 ha        1 MOL      0.135139
    140 H61         9.2230    1.9810   -0.3900 ha        1 MOL      0.135139
    141 H62        10.5560   -0.0740    3.9520 ha        1 MOL      0.153305
    142 H63        11.5430    1.7290    0.1150 ha        1 MOL      0.153305
    143 H64        12.9010    0.7460    1.2880 ho        1 MOL      0.292404
    144 N13         6.5710   -2.1120    0.5700 n         1 MOL     -0.526074
    145 C48         5.9790   -3.1920    1.3620 c3        1 MOL      0.162854
    146 C49         4.5820   -3.6950    0.8820 c         1 MOL      0.420318
    147 O21         3.7750   -4.0950    1.7090 o         1 MOL     -0.471213
    148 C50         6.0880   -2.9140    2.8480 c3        1 MOL     -0.073915
    149 C51         4.9870   -1.8440    3.2910 c3        1 MOL     -0.224523
    150 C52         5.0550   -1.4520    4.7780 c         1 MOL      0.694692
    151 O22         4.0830   -0.9620    5.3400 o         1 MOL     -0.722256
    152 O23         6.1440   -1.7430    5.3930 o         1 MOL     -0.722256
    153 H65         7.5780   -2.1050    0.6000 hn        1 MOL      0.310361
    154 H66         6.5970   -4.0840    1.2730 h1        1 MOL      0.014839
    155 H67         7.1070   -2.5630    3.0560 hc        1 MOL      0.024937
    156 H68         5.9730   -3.7400    3.5560 hc        1 MOL      0.024937
    157 H69         4.0010   -2.2720    3.1400 hc        1 MOL      0.079075
    158 H70         5.1130   -0.9630    2.6660 hc        1 MOL      0.079075
    159 N14         4.3640   -3.7650   -0.4180 n         1 MOL     -0.497581
    160 C53         3.1690   -4.3560   -1.0200 c3        1 MOL      0.081969
    161 C54         3.3750   -5.6380   -1.8030 c         1 MOL      0.392513
    162 O24         2.4180   -6.3880   -2.0700 o         1 MOL     -0.492730
    163 C55         2.4970   -3.3450   -1.8860 c3        1 MOL      0.281837
    164 C56         0.9780   -3.5770   -2.1720 c3        1 MOL     -0.217795
    165 C57         0.0700   -3.6710   -0.9070 c         1 MOL      0.896170
    166 O25         0.1580   -4.6350   -0.1130 o         1 MOL     -0.795265
    167 O26        -0.6870   -2.7590   -0.5510 o         1 MOL     -0.795265
    168 H71         5.0680   -3.3730   -1.0380 hn        1 MOL      0.216926
    169 H72         2.4660   -4.6370   -0.2400 h1        1 MOL      0.129685
    170 H73         3.0750   -3.2750   -2.8120 hc        1 MOL     -0.070847
    171 H74         2.5810   -2.3590   -1.4160 hc        1 MOL     -0.070847
    172 H75         0.7890   -4.4810   -2.7510 hc        1 MOL      0.029736
    173 H76         0.5520   -2.7820   -2.7720 hc        1 MOL      0.029736
    174 N15         4.6470   -5.9890   -2.2010 n         1 MOL     -0.287693
    175 C58         5.0360   -7.0430   -3.1340 c3        1 MOL     -0.094492
    176 H77         5.7010   -6.6280   -3.8910 h1        1 MOL      0.061476
    177 H78         5.5520   -7.8360   -2.5930 h1        1 MOL      0.061476
    178 H79         4.1460   -7.4500   -3.6150 h1        1 MOL      0.061476
    179 H80         5.4500   -5.4830   -1.8330 hn        1 MOL      0.224060
    180 Ca1        -2.1460   -3.6110    1.4190 Ca        1 MOL      1.729341
    181 O27        -3.1610   -1.0400    0.8610 oh        1 MOL     -0.813491
    182 H81        -4.0510   -1.1920    0.5520 ho        1 MOL      0.407868
    183 H82        -2.8930   -0.2170    0.4560 ho        1 MOL      0.407868
    184 O28        -2.5510   -2.3630    3.8340 oh        1 MOL     -0.813491
    185 H83        -3.4540   -2.3500    4.1630 ho        1 MOL      0.407868
    186 H84        -2.2080   -1.4880    4.0560 ho        1 MOL      0.407868
    187 O29        -2.0280   -6.2180    1.0570 oh        1 MOL     -0.813491
    188 H85        -2.2240   -6.9660    1.6190 ho        1 MOL      0.407868
    189 H86        -1.6200   -6.6030    0.2800 ho        1 MOL      0.407868
    190 O30        -0.1230   -1.9230    2.1330 oh        1 MOL     -0.813491
    191 H87         0.3820   -1.4330    2.7860 ho        1 MOL      0.407868
    192 H88         0.3320   -1.7680    1.3120 ho        1 MOL      0.407868
    193 O31        -0.5350   -4.9220    3.1200 oh        1 MOL     -0.813491
    194 H89        -0.5270   -5.8750    3.2240 ho        1 MOL      0.407868
    195 H90         0.3170   -4.6270    3.4440 ho        1 MOL      0.407868
@<TRIPOS>BOND
     1    1    2 1   
     2    1    4 1   
     3    1    5 1   
     4    1    6 1   
     5    2    3 2   
     6    2    7 1   
     7    7    8 1   
     8    7   15 1   
     9    8    9 1   
    10    8   11 1   
    11    8   16 1   
    12    9   10 2   
    13    9   19 1   
    14   11   12 1   
    15   11   17 1   
    16   11   18 1   
    17   12   13 1   
    18   12   14 1   
    19   19   20 1   
    20   19   27 1   
    21   20   21 1   
    22   20   23 1   
    23   20   28 1   
    24   21   22 2   
    25   21   38 1   
    26   23   24 1   
    27   23   25 1   
    28   23   29 1   
    29   24   26 1   
    30   24   30 1   
    31   24   31 1   
    32   25   32 1   
    33   25   33 1   
    34   25   34 1   
    35   26   35 1   
    36   26   36 1   
    37   26   37 1   
    38   38   39 1   
    39   38   46 1   
    40   39   40 1   
    41   39   42 1   
    42   39   47 1   
    43   40   41 2   
    44   40   50 1   
    45   42   43 1   
    46   42   48 1   
    47   42   49 1   
    48   43   44 1   
    49   43   45 1   
    50   50   51 1   
    51   50   54 1   
    52   51   52 1   
    53   51   55 1   
    54   51   56 1   
    55   52   53 2   
    56   52   57 1   
    57   57   58 1   
    58   57   65 1   
    59   58   59 1   
    60   58   61 1   
    61   58   66 1   
    62   59   60 2   
    63   59   69 1   
    64   61   62 1   
    65   61   67 1   
    66   61   68 1   
    67   62   63 1   
    68   62   64 1   
    69   69   70 1   
    70   69   73 1   
    71   70   71 1   
    72   70   74 1   
    73   70   75 1   
    74   71   72 2   
    75   71   76 1   
    76   76   77 1   
    77   76   85 1   
    78   77   78 1   
    79   77   80 1   
    80   77   86 1   
    81   78   79 2   
    82   78   93 1   
    83   80   81 1   
    84   80   87 1   
    85   80   88 1   
    86   81   82 1   
    87   81   89 1   
    88   81   90 1   
    89   82   83 1   
    90   82   84 2   
    91   83   91 1   
    92   83   92 1   
    93   93   94 1   
    94   93  100 1   
    95   94   95 1   
    96   94   97 1   
    97   94  101 1   
    98   95   96 2   
    99   95  109 1   
   100   97   98 1   
   101   97   99 1   
   102   97  102 1   
   103   98  103 1   
   104   98  104 1   
   105   98  105 1   
   106   99  106 1   
   107   99  107 1   
   108   99  108 1   
   109  109  110 1   
   110  109  117 1   
   111  110  111 1   
   112  110  113 1   
   113  110  118 1   
   114  111  112 2   
   115  111  123 1   
   116  113  114 1   
   117  113  119 1   
   118  113  120 1   
   119  114  115 1   
   120  114  116 2   
   121  115  121 1   
   122  115  122 1   
   123  123  124 1   
   124  123  135 1   
   125  124  125 1   
   126  124  127 1   
   127  124  136 1   
   128  125  126 2   
   129  125  144 1   
   130  127  128 1   
   131  127  137 1   
   132  127  138 1   
   133  128  129 ar  
   134  128  130 ar  
   135  129  131 ar  
   136  129  139 1   
   137  130  132 ar  
   138  130  140 1   
   139  131  133 ar  
   140  131  141 1   
   141  132  133 ar  
   142  132  142 1   
   143  133  134 1   
   144  134  143 1   
   145  144  145 1   
   146  144  153 1   
   147  145  146 1   
   148  145  148 1   
   149  145  154 1   
   150  146  147 2   
   151  146  159 1   
   152  148  149 1   
   153  148  155 1   
   154  148  156 1   
   155  149  150 1   
   156  149  157 1   
   157  149  158 1   
   158  150  151 1   
   159  150  152 1   
   160  159  160 1   
   161  159  168 1   
   162  160  161 1   
   163  160  163 1   
   164  160  169 1   
   165  161  162 2   
   166  161  174 1   
   167  163  164 1   
   168  163  170 1   
   169  163  171 1   
   170  164  165 1   
   171  164  172 1   
   172  164  173 1   
   173  165  166 1   
   174  165  167 1   
   175  174  175 1   
   176  174  179 1   
   177  175  176 1   
   178  175  177 1   
   179  175  178 1   
   180  181  182 1   
   181  181  183 1   
   182  184  185 1   
   183  184  186 1   
   184  187  188 1   
   185  187  189 1   
   186  190  191 1   
   187  190  192 1   
   188  193  194 1   
   189  193  195 1   
@<TRIPOS>SUBSTRUCTURE
     1 MOL         1 TEMP              0 ****  ****    0 ROOT
