@<TRIPOS>MOLECULE
MOL
  195   189     1     0     0
SMALL
resp


@<TRIPOS>ATOM
      1 C1         -1.9510    3.6910   -3.2380 c3        1 MOL     -0.375451
      2 C2         -1.1840    3.8600   -1.8740 c         1 MOL      0.667840
      3 O1         -0.4760    2.9250   -1.4410 o         1 MOL     -0.497777
      4 H1         -1.6530    2.7530   -3.7070 hc        1 MOL      0.091934
      5 H2         -3.0250    3.6790   -3.0530 hc        1 MOL      0.091934
      6 H3         -1.7050    4.5210   -3.9000 hc        1 MOL      0.091934
      7 N1         -1.3480    4.9590   -1.1940 n         1 MOL     -0.597411
      8 C3         -0.6860    5.2570    0.0550 c3        1 MOL     -0.149722
      9 C4          0.8200    5.0570    0.0210 c         1 MOL      0.632548
     10 O2          1.4830    4.7280    1.0040 o         1 MOL     -0.530867
     11 C5         -1.5640    4.6390    1.1650 c3        1 MOL     -0.038692
     12 C6         -3.0450    4.9280    0.9630 c         1 MOL      0.759067
     13 O3         -3.4120    6.1170    0.9980 o         1 MOL     -0.753686
     14 O4         -3.9440    4.0070    0.8490 o         1 MOL     -0.753686
     15 H4         -1.9920    5.6230   -1.6120 hn        1 MOL      0.278146
     16 H5         -0.8380    6.3310    0.1790 h1        1 MOL      0.113508
     17 H6         -1.1360    4.9110    2.1190 hc        1 MOL      0.049826
     18 H7         -1.3960    3.5610    1.1040 hc        1 MOL      0.049826
     19 N2          1.4590    5.3770   -1.1100 n         1 MOL     -0.225159
     20 C7          2.9230    5.4490   -1.2960 c3        1 MOL     -0.590671
     21 C8          3.6780    6.4060   -0.2860 c         1 MOL      0.584048
     22 O5          3.0260    7.3210    0.2420 o         1 MOL     -0.549868
     23 C9          3.3750    5.4250   -2.7730 c3        1 MOL      0.109655
     24 C10         2.8670    6.7720   -3.4030 c3        1 MOL      0.257838
     25 C11         2.8650    4.0830   -3.3930 c3        1 MOL     -0.244724
     26 C12         3.3580    7.0610   -4.8410 c3        1 MOL     -0.360510
     27 H8          0.9260    5.8230   -1.8440 hn        1 MOL      0.259685
     28 H9          3.2010    4.4460   -0.9680 h1        1 MOL      0.200617
     29 H10         4.4620    5.4980   -2.8130 hc        1 MOL      0.068298
     30 H11         3.1620    7.5900   -2.7480 hc        1 MOL     -0.030532
     31 H12         1.7820    6.7140   -3.4250 hc        1 MOL     -0.030532
     32 H13         3.1270    3.2200   -2.7790 hc        1 MOL      0.060709
     33 H14         1.7740    4.0730   -3.3350 hc        1 MOL      0.060709
     34 H15         3.1980    3.9520   -4.4240 hc        1 MOL      0.060709
     35 H16         3.2000    8.1420   -4.9360 hc        1 MOL      0.071434
     36 H17         4.3940    6.7450   -4.9100 hc        1 MOL      0.071434
     37 H18         2.7910    6.5430   -5.6120 hc        1 MOL      0.071434
     38 N3          4.9520    6.1090    0.0530 n         1 MOL     -0.456911
     39 C13         5.7940    4.9300   -0.3160 c3        1 MOL      0.297036
     40 C14         5.4300    3.6200    0.4350 c         1 MOL      0.474477
     41 O6          5.6350    2.4580   -0.0870 o         1 MOL     -0.646561
     42 C15         7.3000    5.3180   -0.1080 c3        1 MOL     -0.327432
     43 C16         7.8090    5.5610    1.3370 c         1 MOL      0.767023
     44 O7          7.0310    5.8170    2.2620 o         1 MOL     -0.727372
     45 O8          9.0500    5.5220    1.5660 o         1 MOL     -0.727372
     46 H19         5.2850    6.8290    0.6780 hn        1 MOL      0.255947
     47 H20         5.8340    4.7950   -1.3980 h1        1 MOL     -0.009106
     48 H21         7.3610    6.2670   -0.6410 hc        1 MOL      0.057858
     49 H22         7.8780    4.5570   -0.6370 hc        1 MOL      0.057858
     50 N4          4.8740    3.7130    1.6450 n         1 MOL     -0.123386
     51 C17         4.5730    2.5860    2.5670 c3        1 MOL     -0.306240
     52 C18         5.8040    1.7570    2.8540 c         1 MOL      0.566935
     53 O9          6.9390    2.1850    2.7350 o         1 MOL     -0.470977
     54 H23         4.5890    4.6250    1.9710 hn        1 MOL      0.250499
     55 H24         3.7530    1.9510    2.2550 h1        1 MOL      0.116874
     56 H25         4.2860    3.0380    3.5170 h1        1 MOL      0.116874
     57 N5          5.5810    0.4390    3.0160 n         1 MOL     -0.473139
     58 C19         6.6220   -0.5420    3.2110 c3        1 MOL      0.092814
     59 C20         7.2160   -0.9050    1.8330 c         1 MOL      0.321010
     60 O10         8.3470   -1.3570    1.7090 o         1 MOL     -0.561537
     61 C21         6.1700   -1.8840    3.8930 c3        1 MOL     -0.310683
     62 C22         4.8490   -2.4180    3.4400 c         1 MOL      0.795195
     63 O11         4.7500   -2.7660    2.2810 o         1 MOL     -0.721029
     64 O12         3.8330   -2.5190    4.1770 o         1 MOL     -0.721029
     65 H26         4.6350    0.1010    2.8910 hn        1 MOL      0.284270
     66 H27         7.3610   -0.0740    3.8710 h1        1 MOL      0.109104
     67 H28         6.1160   -1.7830    4.9800 hc        1 MOL      0.056373
     68 H29         6.9030   -2.6610    3.6820 hc        1 MOL      0.056373
     69 N6          6.5900   -0.6390    0.6880 n         1 MOL      0.046793
     70 C23         6.9640   -1.0470   -0.6890 c3        1 MOL     -0.355086
     71 C24         6.7580   -2.5480   -0.9640 c         1 MOL      0.453723
     72 O13         7.0650   -2.9410   -2.1600 o         1 MOL     -0.585201
     73 H30         5.6440   -0.3140    0.8170 hn        1 MOL      0.187619
     74 H31         7.9850   -0.7570   -0.9040 h1        1 MOL      0.157879
     75 H32         6.4060   -0.4670   -1.4270 h1        1 MOL      0.157879
     76 N7          6.2860   -3.3460   -0.0550 n         1 MOL      0.011150
     77 C25         6.0600   -4.7960   -0.2060 c3        1 MOL      0.012945
     78 C26         5.3360   -5.2210   -1.5100 c         1 MOL      0.440449
     79 O14         5.6440   -6.2660   -2.1510 o         1 MOL     -0.499810
     80 C27         7.4270   -5.6380   -0.0330 c3        1 MOL      0.033296
     81 C28         8.2060   -5.1860    1.2630 c3        1 MOL     -0.300354
     82 C29         9.2660   -6.1370    1.7990 c         1 MOL      0.619594
     83 N8         10.3540   -5.5500    2.2660 n         1 MOL     -0.745701
     84 O15         9.1600   -7.3600    1.9050 o         1 MOL     -0.565932
     85 H33         6.0810   -2.8950    0.8270 hn        1 MOL      0.006192
     86 H34         5.4550   -5.2310    0.5900 h1        1 MOL      0.096873
     87 H35         8.0080   -5.4090   -0.9260 hc        1 MOL      0.021057
     88 H36         7.1280   -6.6860   -0.0490 hc        1 MOL      0.021057
     89 H37         7.4890   -4.8420    2.0070 hc        1 MOL      0.130047
     90 H38         8.7340   -4.2830    0.9470 hc        1 MOL      0.130047
     91 H39        10.3510   -4.5460    2.3500 hn        1 MOL      0.339214
     92 H40        10.9820   -6.1120    2.8250 hn        1 MOL      0.339214
     93 N9          4.4310   -4.3110   -1.9990 n         1 MOL     -0.374168
     94 C30         3.4730   -4.4720   -3.1270 c3        1 MOL     -0.149312
     95 C31         1.9840   -3.9210   -2.8800 c         1 MOL      0.608823
     96 O16         1.1550   -4.2100   -3.7380 o         1 MOL     -0.562707
     97 C32         4.1030   -3.8370   -4.3730 c3        1 MOL      0.335437
     98 C33         4.3660   -2.3150   -4.1270 c3        1 MOL     -0.418343
     99 C34         5.4250   -4.4100   -4.8900 c3        1 MOL     -0.418343
    100 H41         4.3260   -3.5130   -1.3910 hn        1 MOL      0.201485
    101 H42         3.3270   -5.5050   -3.4400 h1        1 MOL      0.127187
    102 H43         3.4880   -3.9050   -5.2700 hc        1 MOL     -0.037257
    103 H44         5.0050   -2.2300   -3.2440 hc        1 MOL      0.103009
    104 H45         4.8090   -1.8080   -4.9820 hc        1 MOL      0.103009
    105 H46         3.4270   -1.8110   -3.8880 hc        1 MOL      0.103009
    106 H47         5.3730   -5.4930   -4.7420 hc        1 MOL      0.103009
    107 H48         5.7230   -4.0320   -5.8730 hc        1 MOL      0.103009
    108 H49         6.2180   -4.0840   -4.2190 hc        1 MOL      0.103009
    109 N10         1.6240   -3.1240   -1.8050 n         1 MOL     -0.538736
    110 C35         0.3720   -2.3680   -1.7200 c3        1 MOL      0.295737
    111 C36        -0.5100   -2.9980   -0.6040 c         1 MOL      0.550990
    112 O17        -0.0060   -3.6200    0.3120 o         1 MOL     -0.529028
    113 C37         0.6410   -0.8720   -1.3200 c3        1 MOL     -0.264897
    114 C38         1.2950   -0.1040   -2.4810 c         1 MOL      0.556693
    115 N11         2.5710    0.0650   -2.3750 n         1 MOL     -0.548193
    116 O18         0.6000    0.1630   -3.4730 o         1 MOL     -0.578852
    117 H50         2.3220   -2.9100   -1.1090 hn        1 MOL      0.280527
    118 H51        -0.1760   -2.2970   -2.6610 h1        1 MOL      0.048741
    119 H52         1.3110   -0.8170   -0.4550 hc        1 MOL      0.079123
    120 H53        -0.2890   -0.3630   -1.0810 hc        1 MOL      0.079123
    121 H54         2.9400   -0.1720   -1.4710 hn        1 MOL      0.316260
    122 H55         3.0740    0.3240   -3.2190 hn        1 MOL      0.316260
    123 N12        -1.8010   -2.8040   -0.7570 n         1 MOL     -0.683805
    124 C39        -2.7750   -3.3860    0.1250 c3        1 MOL      0.484037
    125 C40        -4.1470   -3.6920   -0.6090 c         1 MOL      0.442303
    126 O19        -4.4060   -3.1800   -1.6640 o         1 MOL     -0.521060
    127 C41        -2.9870   -2.4470    1.2940 c3        1 MOL     -0.121532
    128 C42        -3.5960   -3.0980    2.4950 ca        1 MOL      0.016888
    129 C43        -4.8340   -2.6220    2.9880 ca        1 MOL     -0.142843
    130 C44        -2.9310   -4.1300    3.2280 ca        1 MOL     -0.142843
    131 C45        -5.3640   -3.1930    4.1410 ca        1 MOL     -0.277667
    132 C46        -3.5420   -4.8160    4.3350 ca        1 MOL     -0.277667
    133 C47        -4.7960   -4.2960    4.8820 ca        1 MOL      0.374164
    134 O20        -5.3940   -4.6640    6.0010 oh        1 MOL     -0.513108
    135 H56        -2.0610   -2.1930   -1.5290 hn        1 MOL      0.288317
    136 H57        -2.2720   -4.2970    0.4350 h1        1 MOL     -0.007512
    137 H58        -3.6590   -1.6430    0.9860 hc        1 MOL      0.053444
    138 H59        -1.9920   -2.1290    1.5990 hc        1 MOL      0.053444
    139 H60        -5.3740   -1.8050    2.5330 ha        1 MOL      0.150128
    140 H61        -1.9970   -4.5150    2.8480 ha        1 MOL      0.150128
    141 H62        -6.2020   -2.7340    4.6280 ha        1 MOL      0.137007
    142 H63        -2.9930   -5.5540    4.9090 ha        1 MOL      0.137007
    143 H64        -6.3310   -4.4680    6.0430 ho        1 MOL      0.382089
    144 N13        -5.0590   -4.3930    0.0720 n         1 MOL     -0.613676
    145 C48        -6.4720   -4.4970   -0.3140 c3        1 MOL      0.305807
    146 C49        -7.3760   -3.7370    0.7410 c         1 MOL      0.582514
    147 O21        -7.8960   -4.3650    1.6630 o         1 MOL     -0.556305
    148 C50        -6.8590   -5.9550   -0.5570 c3        1 MOL     -0.023032
    149 C51        -8.3080   -5.9670   -1.0920 c3        1 MOL     -0.349558
    150 C52        -8.7920   -7.4380   -1.2240 c         1 MOL      0.782859
    151 O22        -9.8620   -7.7750   -0.6550 o         1 MOL     -0.717309
    152 O23        -8.1400   -8.2420   -1.8730 o         1 MOL     -0.717309
    153 H65        -4.7630   -4.9490    0.8600 hn        1 MOL      0.267059
    154 H66        -6.5970   -4.0090   -1.2780 h1        1 MOL      0.072908
    155 H67        -6.8050   -6.6510    0.2760 hc        1 MOL      0.036201
    156 H68        -6.2220   -6.4160   -1.3040 hc        1 MOL      0.036201
    157 H69        -8.3210   -5.3170   -1.9650 hc        1 MOL      0.051390
    158 H70        -9.0150   -5.3950   -0.4830 hc        1 MOL      0.051390
    159 N14        -7.6290   -2.3940    0.6100 n         1 MOL     -0.661563
    160 C53        -6.9960   -1.4970   -0.3780 c3        1 MOL     -0.067921
    161 C54        -7.4760   -1.4850   -1.8510 c         1 MOL      0.664320
    162 O24        -8.5460   -1.9290   -2.2180 o         1 MOL     -0.530189
    163 C55        -6.8440   -0.1310    0.1820 c3        1 MOL      0.524816
    164 C56        -8.0090    0.8770   -0.0610 c3        1 MOL     -0.345251
    165 C57        -7.9340    2.2740    0.6400 c         1 MOL      0.830932
    166 O25        -8.8920    2.6820    1.4130 o         1 MOL     -0.743594
    167 O26        -6.8820    2.9470    0.4760 o         1 MOL     -0.743594
    168 H71        -8.3290   -1.9840    1.2080 hn        1 MOL      0.355349
    169 H72        -6.0210   -1.9790   -0.4190 h1        1 MOL      0.061995
    170 H73        -5.9460    0.2570   -0.2900 hc        1 MOL     -0.132166
    171 H74        -6.6010   -0.2020    1.2370 hc        1 MOL     -0.132166
    172 H75        -8.9450    0.4160    0.2240 hc        1 MOL      0.028959
    173 H76        -8.0950    1.0570   -1.1380 hc        1 MOL      0.028959
    174 N15        -6.5270   -0.9960   -2.7170 n         1 MOL     -0.428018
    175 C58        -6.7430   -1.1600   -4.1280 c3        1 MOL     -0.337010
    176 H77        -6.4450   -2.1650   -4.4270 h1        1 MOL      0.131339
    177 H78        -7.7990   -1.0130   -4.3550 h1        1 MOL      0.131339
    178 H79        -6.1490   -0.4280   -4.6760 h1        1 MOL      0.131339
    179 H80        -5.5800   -0.8080   -2.4030 hn        1 MOL      0.318339
    180 Ca1        -6.0430    5.3590    0.7080 Ca        1 MOL      1.712370
    181 O27        -5.6140    4.6900    3.3340 oh        1 MOL     -0.835706
    182 H81        -4.8920    4.5260    3.9350 ho        1 MOL      0.397475
    183 H82        -6.2260    5.2220    3.8440 ho        1 MOL      0.397475
    184 O28        -7.2210    4.7570   -1.6710 oh        1 MOL     -0.835706
    185 H83        -7.7670    5.1870   -2.3200 ho        1 MOL      0.397475
    186 H84        -7.0820    3.8720   -2.0160 ho        1 MOL      0.397475
    187 O29        -8.3290    5.1440    2.0380 oh        1 MOL     -0.835706
    188 H85        -8.5940    5.2030    2.9550 ho        1 MOL      0.397475
    189 H86        -8.5660    4.2580    1.7740 ho        1 MOL      0.397475
    190 O30        -7.6870    7.4030   -0.3200 oh        1 MOL     -0.835706
    191 H87        -7.2870    7.6960   -1.1430 ho        1 MOL      0.397475
    192 H88        -8.5990    7.7090   -0.3850 ho        1 MOL      0.397475
    193 O31        -5.9590    7.6180    2.2710 oh        1 MOL     -0.835706
    194 H89        -5.7910    7.8140    3.1900 ho        1 MOL      0.397475
    195 H90        -6.6170    8.2690    2.0030 ho        1 MOL      0.397475
@<TRIPOS>BOND
     1    1    2 1   
     2    1    4 1   
     3    1    5 1   
     4    1    6 1   
     5    2    3 2   
     6    2    7 1   
     7    7    8 1   
     8    7   15 1   
     9    8    9 1   
    10    8   11 1   
    11    8   16 1   
    12    9   10 2   
    13    9   19 1   
    14   11   12 1   
    15   11   17 1   
    16   11   18 1   
    17   12   13 1   
    18   12   14 1   
    19   19   20 1   
    20   19   27 1   
    21   20   21 1   
    22   20   23 1   
    23   20   28 1   
    24   21   22 2   
    25   21   38 1   
    26   23   24 1   
    27   23   25 1   
    28   23   29 1   
    29   24   26 1   
    30   24   30 1   
    31   24   31 1   
    32   25   32 1   
    33   25   33 1   
    34   25   34 1   
    35   26   35 1   
    36   26   36 1   
    37   26   37 1   
    38   38   39 1   
    39   38   46 1   
    40   39   40 1   
    41   39   42 1   
    42   39   47 1   
    43   40   41 2   
    44   40   50 1   
    45   42   43 1   
    46   42   48 1   
    47   42   49 1   
    48   43   44 1   
    49   43   45 1   
    50   50   51 1   
    51   50   54 1   
    52   51   52 1   
    53   51   55 1   
    54   51   56 1   
    55   52   53 2   
    56   52   57 1   
    57   57   58 1   
    58   57   65 1   
    59   58   59 1   
    60   58   61 1   
    61   58   66 1   
    62   59   60 2   
    63   59   69 1   
    64   61   62 1   
    65   61   67 1   
    66   61   68 1   
    67   62   63 1   
    68   62   64 1   
    69   69   70 1   
    70   69   73 1   
    71   70   71 1   
    72   70   74 1   
    73   70   75 1   
    74   71   72 2   
    75   71   76 1   
    76   76   77 1   
    77   76   85 1   
    78   77   78 1   
    79   77   80 1   
    80   77   86 1   
    81   78   79 2   
    82   78   93 1   
    83   80   81 1   
    84   80   87 1   
    85   80   88 1   
    86   81   82 1   
    87   81   89 1   
    88   81   90 1   
    89   82   83 1   
    90   82   84 2   
    91   83   91 1   
    92   83   92 1   
    93   93   94 1   
    94   93  100 1   
    95   94   95 1   
    96   94   97 1   
    97   94  101 1   
    98   95   96 2   
    99   95  109 1   
   100   97   98 1   
   101   97   99 1   
   102   97  102 1   
   103   98  103 1   
   104   98  104 1   
   105   98  105 1   
   106   99  106 1   
   107   99  107 1   
   108   99  108 1   
   109  109  110 1   
   110  109  117 1   
   111  110  111 1   
   112  110  113 1   
   113  110  118 1   
   114  111  112 2   
   115  111  123 1   
   116  113  114 1   
   117  113  119 1   
   118  113  120 1   
   119  114  115 1   
   120  114  116 2   
   121  115  121 1   
   122  115  122 1   
   123  123  124 1   
   124  123  135 1   
   125  124  125 1   
   126  124  127 1   
   127  124  136 1   
   128  125  126 2   
   129  125  144 1   
   130  127  128 1   
   131  127  137 1   
   132  127  138 1   
   133  128  129 ar  
   134  128  130 ar  
   135  129  131 ar  
   136  129  139 1   
   137  130  132 ar  
   138  130  140 1   
   139  131  133 ar  
   140  131  141 1   
   141  132  133 ar  
   142  132  142 1   
   143  133  134 1   
   144  134  143 1   
   145  144  145 1   
   146  144  153 1   
   147  145  146 1   
   148  145  148 1   
   149  145  154 1   
   150  146  147 2   
   151  146  159 1   
   152  148  149 1   
   153  148  155 1   
   154  148  156 1   
   155  149  150 1   
   156  149  157 1   
   157  149  158 1   
   158  150  151 1   
   159  150  152 1   
   160  159  160 1   
   161  159  168 1   
   162  160  161 1   
   163  160  163 1   
   164  160  169 1   
   165  161  162 2   
   166  161  174 1   
   167  163  164 1   
   168  163  170 1   
   169  163  171 1   
   170  164  165 1   
   171  164  172 1   
   172  164  173 1   
   173  165  166 1   
   174  165  167 1   
   175  174  175 1   
   176  174  179 1   
   177  175  176 1   
   178  175  177 1   
   179  175  178 1   
   180  181  182 1   
   181  181  183 1   
   182  184  185 1   
   183  184  186 1   
   184  187  188 1   
   185  187  189 1   
   186  190  191 1   
   187  190  192 1   
   188  193  194 1   
   189  193  195 1   
@<TRIPOS>SUBSTRUCTURE
     1 MOL         1 TEMP              0 ****  ****    0 ROOT
