@<TRIPOS>MOLECULE
MOL
  195   189     1     0     0
SMALL
resp


@<TRIPOS>ATOM
      1 C1          3.6930   -5.6810   -3.7120 c3        1 MOL     -0.157536
      2 C2          3.5760   -4.6230   -2.6030 c         1 MOL      0.656632
      3 O1          3.0350   -4.9080   -1.5470 o         1 MOL     -0.552292
      4 H1          3.8550   -6.6620   -3.2630 hc        1 MOL      0.034215
      5 H2          2.7730   -5.6980   -4.2970 hc        1 MOL      0.034215
      6 H3          4.5340   -5.4360   -4.3620 hc        1 MOL      0.034215
      7 N1          3.9610   -3.3710   -2.8490 n         1 MOL     -0.542856
      8 C3          3.8520   -2.2260   -1.8830 c3        1 MOL      0.040542
      9 C4          2.3950   -1.6370   -1.8080 c         1 MOL      0.453990
     10 O2          2.2160   -0.6520   -1.0790 o         1 MOL     -0.519377
     11 C5          4.9330   -1.1820   -2.2210 c3        1 MOL     -0.203074
     12 C6          4.8920   -0.5440   -3.6530 c         1 MOL      0.661540
     13 O3          4.7760    0.6880   -3.7360 o         1 MOL     -0.672093
     14 O4          4.9990   -1.2720   -4.6580 o         1 MOL     -0.672093
     15 H4          4.4070   -3.0880   -3.7190 hn        1 MOL      0.307946
     16 H5          4.1550   -2.5800   -0.8970 h1        1 MOL      0.108120
     17 H6          5.8240   -1.7760   -2.0140 hc        1 MOL      0.057700
     18 H7          4.8810   -0.3890   -1.4730 hc        1 MOL      0.057700
     19 N2          1.4050   -2.2270   -2.4760 n         1 MOL     -0.270003
     20 C7         -0.0080   -1.8660   -2.4430 c3        1 MOL      0.065470
     21 C8         -0.8940   -2.9240   -1.7210 c         1 MOL      0.553365
     22 O5         -0.7100   -4.1110   -1.8250 o         1 MOL     -0.554582
     23 C9         -0.4620   -1.5830   -3.9020 c3        1 MOL      0.009133
     24 C10         0.3850   -0.5690   -4.7130 c3        1 MOL     -0.103976
     25 C11         0.3980    0.8540   -4.1920 c3        1 MOL      0.248969
     26 C12         1.2670    1.7510   -5.0920 c3        1 MOL     -0.183075
     27 N3          2.5690    2.2220   -4.4780 n4        1 MOL     -0.131309
     28 H8          1.6730   -2.9740   -3.0910 hn        1 MOL      0.218575
     29 H9         -0.1080   -0.9380   -1.8640 h1        1 MOL      0.129285
     30 H10        -1.4810   -1.2160   -3.9240 hc        1 MOL      0.023802
     31 H11        -0.6810   -2.5380   -4.3820 hc        1 MOL      0.023802
     32 H12        -0.1530   -0.5560   -5.6700 hc        1 MOL      0.008504
     33 H13         1.3700   -1.0030   -4.8170 hc        1 MOL      0.008504
     34 H14         0.7610    0.7740   -3.1690 hc        1 MOL     -0.004067
     35 H15        -0.6090    1.2490   -4.2150 hc        1 MOL     -0.004067
     36 H16         0.5710    2.5780   -5.2050 hx        1 MOL      0.097874
     37 H17         1.4520    1.2340   -6.0330 hx        1 MOL      0.097874
     38 H18         3.2530    1.4900   -4.4780 hn        1 MOL      0.240566
     39 H19         3.0030    2.9120   -5.0800 hn        1 MOL      0.240566
     40 H20         2.4230    2.4840   -3.5040 hn        1 MOL      0.240566
     41 N4         -1.8420   -2.5340   -0.8750 n         1 MOL     -0.487293
     42 C13        -2.2870   -1.1840   -0.3870 c3        1 MOL     -0.006183
     43 C14        -2.7110   -0.3360   -1.6040 c         1 MOL      0.401222
     44 O6         -1.9710    0.5450   -2.0470 o         1 MOL     -0.572980
     45 C15        -1.3540   -0.4780    0.6260 c3        1 MOL      0.026828
     46 C16        -0.9220   -1.3630    1.8250 c         1 MOL      0.616245
     47 O7          0.1700   -1.9220    1.9100 o         1 MOL     -0.745173
     48 O8         -1.7580   -1.5710    2.7400 o         1 MOL     -0.745173
     49 H21        -2.3350   -3.2610   -0.3840 hn        1 MOL      0.297503
     50 H22        -3.2010   -1.4670    0.1250 h1        1 MOL      0.093038
     51 H23        -1.8840    0.3330    1.1220 hc        1 MOL      0.067962
     52 H24        -0.4590   -0.1330    0.0970 hc        1 MOL      0.067962
     53 N5         -3.8260   -0.5810   -2.2720 n         1 MOL     -0.327053
     54 C17        -4.9370   -1.4920   -1.8840 c3        1 MOL     -0.058864
     55 C18        -5.7810   -2.0450   -3.0750 c         1 MOL      0.555215
     56 O9         -5.2950   -2.1200   -4.1780 o         1 MOL     -0.543883
     57 H25        -3.9450   -0.1300   -3.1700 hn        1 MOL      0.322133
     58 H26        -5.5690   -0.9190   -1.2010 h1        1 MOL      0.045373
     59 H27        -4.6490   -2.4210   -1.3890 h1        1 MOL      0.045373
     60 N6         -7.0610   -2.5110   -3.0090 n         1 MOL     -0.335083
     61 C19        -7.8420   -2.5170   -1.8170 c3        1 MOL     -0.115628
     62 C20        -8.2780   -1.1080   -1.3240 c         1 MOL      0.562994
     63 O10        -8.5590   -0.1740   -2.1070 o         1 MOL     -0.503187
     64 C21        -9.1520   -3.3940   -1.9230 c3        1 MOL     -0.162461
     65 C22       -10.0440   -2.9930   -3.1570 c         1 MOL      0.686810
     66 O11        -9.6160   -3.1710   -4.3140 o         1 MOL     -0.602200
     67 O12       -11.2460   -2.7080   -3.0030 o         1 MOL     -0.602200
     68 H28        -7.5400   -2.7960   -3.8480 hn        1 MOL      0.261239
     69 H29        -7.1840   -2.9470   -1.0570 h1        1 MOL      0.047693
     70 H30        -9.7590   -3.2870   -1.0240 hc        1 MOL      0.042294
     71 H31        -8.7660   -4.4200   -1.9400 hc        1 MOL      0.042294
     72 N7         -8.4630   -0.8740   -0.0280 n         1 MOL     -0.332730
     73 C23        -8.9780    0.4360    0.4510 c3        1 MOL     -0.195775
     74 C24        -7.9550    1.3250    1.0860 c         1 MOL      0.542171
     75 O13        -8.2320    2.5330    1.3190 o         1 MOL     -0.564248
     76 H32        -8.0570   -1.5090    0.6490 hn        1 MOL      0.209531
     77 H33        -9.8310    0.4000    1.1380 h1        1 MOL      0.146384
     78 H34        -9.2880    1.0190   -0.4150 h1        1 MOL      0.146384
     79 N8         -6.7740    0.7860    1.3220 n         1 MOL     -0.454376
     80 C25        -5.5120    1.3820    1.9420 c3        1 MOL     -0.057843
     81 C26        -4.7350    2.3150    0.9970 c         1 MOL      0.798828
     82 O14        -4.5900    2.0260   -0.1710 o         1 MOL     -0.507551
     83 C27        -4.6570    0.2940    2.5900 c3        1 MOL      0.598920
     84 C28        -5.4190   -0.4850    3.6370 c3        1 MOL     -0.301613
     85 O15        -3.4960    0.7040    3.2020 oh        1 MOL     -0.712951
     86 H35        -6.7580   -0.2000    1.1230 hn        1 MOL      0.242286
     87 H36        -5.8830    2.0360    2.7390 h1        1 MOL      0.056766
     88 H37        -4.4160   -0.3760    1.7620 h1        1 MOL     -0.093071
     89 H38        -2.9610   -0.0460    3.4600 ho        1 MOL      0.397306
     90 H39        -4.8780   -1.4060    3.8740 hc        1 MOL      0.054877
     91 H40        -5.5540    0.1310    4.5270 hc        1 MOL      0.054877
     92 H41        -6.3630   -0.8770    3.2440 hc        1 MOL      0.054877
     93 N9         -4.2400    3.4420    1.5550 n         1 MOL     -0.680503
     94 C29        -3.5440    4.4240    0.7380 c3        1 MOL     -0.051774
     95 C30        -2.0690    4.6300    0.9520 c         1 MOL      0.525910
     96 O16        -1.4500    5.5840    0.3780 o         1 MOL     -0.582279
     97 C31        -4.3060    5.7720    0.5420 c3        1 MOL      0.093129
     98 C32        -4.3130    6.6060    1.8470 c3        1 MOL      0.188433
     99 C33        -5.7130    5.4760   -0.0080 c3        1 MOL     -0.275054
    100 C34        -4.9090    8.0210    1.5740 c3        1 MOL     -0.372667
    101 H42        -4.3460    3.5040    2.5560 hn        1 MOL      0.335102
    102 H43        -3.6020    4.0380   -0.2830 h1        1 MOL      0.137216
    103 H44        -3.7270    6.2330   -0.2560 hc        1 MOL      0.026487
    104 H45        -3.2970    6.7640    2.2300 hc        1 MOL     -0.013327
    105 H46        -4.8500    6.1180    2.6530 hc        1 MOL     -0.013327
    106 H47        -5.8460    4.6450   -0.6950 hc        1 MOL      0.084317
    107 H48        -6.3170    5.1810    0.8500 hc        1 MOL      0.084317
    108 H49        -6.0960    6.4020   -0.4210 hc        1 MOL      0.084317
    109 H50        -4.2740    8.3550    0.7500 hc        1 MOL      0.083682
    110 H51        -5.9490    7.8460    1.3280 hc        1 MOL      0.083682
    111 H52        -4.6960    8.6640    2.4300 hc        1 MOL      0.083682
    112 N10        -1.4030    3.6980    1.6270 n         1 MOL     -0.294262
    113 C35         0.0420    3.7460    2.0040 c3        1 MOL      0.084642
    114 C36         0.9120    3.1370    0.8640 c         1 MOL      0.407443
    115 O17         0.4750    2.3620    0.0090 o         1 MOL     -0.460483
    116 C37         0.3090    3.1730    3.3880 c3        1 MOL      0.311233
    117 C38        -0.0010    1.6490    3.4370 c3        1 MOL     -0.281767
    118 O18        -0.5060    3.8310    4.2980 oh        1 MOL     -0.627579
    119 H53        -1.9140    2.9030    1.9740 hn        1 MOL      0.178632
    120 H54         0.3740    4.7910    2.0630 h1        1 MOL      0.075379
    121 H55         1.3330    3.4220    3.6710 h1        1 MOL      0.014325
    122 H56        -0.4460    3.2480    5.0600 ho        1 MOL      0.399892
    123 H57        -1.0670    1.5070    3.2490 hc        1 MOL      0.058817
    124 H58         0.5700    1.1100    2.6730 hc        1 MOL      0.058817
    125 H59         0.3120    1.3010    4.4160 hc        1 MOL      0.058817
    126 N11         2.2180    3.3900    0.8610 n         1 MOL     -0.542288
    127 C39         3.3230    2.8800    0.0140 c3        1 MOL      0.463481
    128 C40         4.6100    2.5830    0.7720 c         1 MOL      0.244466
    129 O19         4.7220    2.8460    1.9660 o         1 MOL     -0.506296
    130 C41         3.6200    3.7170   -1.1700 c3        1 MOL      0.059710
    131 C42         4.0630    5.1550   -0.7780 c3        1 MOL     -0.167717
    132 O20         2.4820    3.8340   -2.0290 oh        1 MOL     -0.642961
    133 H60         2.5570    3.8380    1.6930 hn        1 MOL      0.239937
    134 H61         2.9370    1.9490   -0.3970 h1        1 MOL      0.020875
    135 H62         4.4320    3.3580   -1.8060 h1        1 MOL      0.054069
    136 H63         1.8410    4.4460   -1.6700 ho        1 MOL      0.465307
    137 H64         5.0940    5.0890   -0.4080 hc        1 MOL      0.041914
    138 H65         4.0440    5.8300   -1.6370 hc        1 MOL      0.041914
    139 H66         3.3730    5.6060   -0.0620 hc        1 MOL      0.041914
    140 N12         5.5710    1.9560    0.1370 n         1 MOL     -0.037893
    141 C43         6.8740    1.7060    0.6910 c3        1 MOL      0.043966
    142 C44         7.0710    0.3470    1.4700 c         1 MOL      0.500663
    143 O21         8.0750    0.1920    2.1150 o         1 MOL     -0.542735
    144 C45         8.0320    1.8720   -0.3600 c3        1 MOL     -0.165267
    145 C46         8.0350    3.1390   -1.1800 c3        1 MOL      0.012967
    146 C47         9.1020    3.2690   -2.2520 c3        1 MOL      0.143655
    147 C48         9.1220    4.5780   -3.0270 c3        1 MOL     -0.160197
    148 N13         7.7490    5.0940   -3.3440 n4        1 MOL     -0.061799
    149 H67         5.3840    1.7600   -0.8400 hn        1 MOL      0.095267
    150 H68         6.9940    2.4550    1.4800 h1        1 MOL      0.072435
    151 H69         8.0220    0.9700   -0.9770 hc        1 MOL      0.077314
    152 H70         8.9220    1.9940    0.2590 hc        1 MOL      0.077314
    153 H71         8.2370    3.9690   -0.5050 hc        1 MOL     -0.023343
    154 H72         7.0650    3.3280   -1.6450 hc        1 MOL     -0.023343
    155 H73         8.9310    2.4730   -2.9760 hc        1 MOL      0.012275
    156 H74        10.0570    2.9680   -1.8160 hc        1 MOL      0.012275
    157 H75         9.7380    4.4960   -3.9180 hx        1 MOL      0.113206
    158 H76         9.5970    5.2570   -2.3260 hx        1 MOL      0.113206
    159 H77         7.6730    5.6910   -4.1570 hn        1 MOL      0.200986
    160 H78         7.0640    4.3450   -3.3810 hn        1 MOL      0.200986
    161 H79         7.4700    5.7090   -2.5970 hn        1 MOL      0.200986
    162 N14         6.0870   -0.5730    1.4040 n         1 MOL     -0.254269
    163 C49         6.1160   -1.9000    2.0450 c3        1 MOL     -0.127052
    164 C50         6.8510   -2.9530    1.1590 c         1 MOL      0.563384
    165 O22         6.3220   -3.4390    0.2110 o         1 MOL     -0.475318
    166 C51         4.7110   -2.3530    2.4940 c3        1 MOL     -0.179570
    167 C52         4.4630   -3.7090    3.0000 c3        1 MOL     -0.227152
    168 C53         2.9660   -3.7200    3.4260 c         1 MOL      0.721875
    169 O23         2.4180   -2.9050    4.1910 o         1 MOL     -0.755012
    170 O24         2.2630   -4.5190    2.8230 o         1 MOL     -0.755012
    171 H80         5.3150   -0.4300    0.7740 hn        1 MOL      0.099921
    172 H81         6.7650   -1.8490    2.9280 h1        1 MOL      0.059547
    173 H82         4.0500   -2.3590    1.6320 hc        1 MOL      0.142311
    174 H83         4.2830   -1.6930    3.2440 hc        1 MOL      0.142311
    175 H84         5.1330   -3.8310    3.8520 hc        1 MOL      0.080774
    176 H85         4.7060   -4.4480    2.2380 hc        1 MOL      0.080774
    177 N15         7.9880   -3.2540    1.6590 n         1 MOL     -0.381777
    178 C54         8.9580   -4.0490    0.8890 c3        1 MOL     -0.066682
    179 H86         8.6270   -5.0870    0.8490 h1        1 MOL      0.069132
    180 H87         9.0310   -3.6530   -0.1240 h1        1 MOL      0.069132
    181 H88         9.9350   -3.9980    1.3700 h1        1 MOL      0.069132
    182 H89         8.4240   -2.7080    2.3820 hn        1 MOL      0.304528
    183 Ca1        -0.0300   -3.5760    3.9470 Ca        1 MOL      1.811545
    184 O25         0.5690   -1.3520    5.2970 oh        1 MOL     -0.892279
    185 H90         0.4030   -0.6920    5.9550 ho        1 MOL      0.444120
    186 H91         1.3830   -1.0870    4.8720 ho        1 MOL      0.444120
    187 O26         0.5360   -4.8140    6.2460 oh        1 MOL     -0.892279
    188 H92         0.3150   -5.7280    6.4430 ho        1 MOL      0.444120
    189 H93         0.7540   -4.4360    7.1080 ho        1 MOL      0.444120
    190 O27        -2.0820   -2.8790    5.6500 oh        1 MOL     -0.892279
    191 H94        -2.2020   -2.8350    6.6030 ho        1 MOL      0.444120
    192 H95        -2.7410   -2.2860    5.2940 ho        1 MOL      0.444120
    193 O28        -0.4850   -4.4170    1.2840 oh        1 MOL     -0.892279
    194 H96         0.0040   -3.6970    0.8740 ho        1 MOL      0.444120
    195 H97        -0.6000   -5.0580    0.5760 ho        1 MOL      0.444120
@<TRIPOS>BOND
     1    1    2 1   
     2    1    4 1   
     3    1    5 1   
     4    1    6 1   
     5    2    3 2   
     6    2    7 1   
     7    7    8 1   
     8    7   15 1   
     9    8    9 1   
    10    8   11 1   
    11    8   16 1   
    12    9   10 2   
    13    9   19 1   
    14   11   12 1   
    15   11   17 1   
    16   11   18 1   
    17   12   13 1   
    18   12   14 1   
    19   19   20 1   
    20   19   28 1   
    21   20   21 1   
    22   20   23 1   
    23   20   29 1   
    24   21   22 2   
    25   21   41 1   
    26   23   24 1   
    27   23   30 1   
    28   23   31 1   
    29   24   25 1   
    30   24   32 1   
    31   24   33 1   
    32   25   26 1   
    33   25   34 1   
    34   25   35 1   
    35   26   27 1   
    36   26   36 1   
    37   26   37 1   
    38   27   38 1   
    39   27   39 1   
    40   27   40 1   
    41   41   42 1   
    42   41   49 1   
    43   42   43 1   
    44   42   45 1   
    45   42   50 1   
    46   43   44 2   
    47   43   53 1   
    48   45   46 1   
    49   45   51 1   
    50   45   52 1   
    51   46   47 1   
    52   46   48 1   
    53   53   54 1   
    54   53   57 1   
    55   54   55 1   
    56   54   58 1   
    57   54   59 1   
    58   55   56 2   
    59   55   60 1   
    60   60   61 1   
    61   60   68 1   
    62   61   62 1   
    63   61   64 1   
    64   61   69 1   
    65   62   63 2   
    66   62   72 1   
    67   64   65 1   
    68   64   70 1   
    69   64   71 1   
    70   65   66 1   
    71   65   67 1   
    72   72   73 1   
    73   72   76 1   
    74   73   74 1   
    75   73   77 1   
    76   73   78 1   
    77   74   75 2   
    78   74   79 1   
    79   79   80 1   
    80   79   86 1   
    81   80   81 1   
    82   80   83 1   
    83   80   87 1   
    84   81   82 2   
    85   81   93 1   
    86   83   84 1   
    87   83   85 1   
    88   83   88 1   
    89   84   90 1   
    90   84   91 1   
    91   84   92 1   
    92   85   89 1   
    93   93   94 1   
    94   93  101 1   
    95   94   95 1   
    96   94   97 1   
    97   94  102 1   
    98   95   96 2   
    99   95  112 1   
   100   97   98 1   
   101   97   99 1   
   102   97  103 1   
   103   98  100 1   
   104   98  104 1   
   105   98  105 1   
   106   99  106 1   
   107   99  107 1   
   108   99  108 1   
   109  100  109 1   
   110  100  110 1   
   111  100  111 1   
   112  112  113 1   
   113  112  119 1   
   114  113  114 1   
   115  113  116 1   
   116  113  120 1   
   117  114  115 2   
   118  114  126 1   
   119  116  117 1   
   120  116  118 1   
   121  116  121 1   
   122  117  123 1   
   123  117  124 1   
   124  117  125 1   
   125  118  122 1   
   126  126  127 1   
   127  126  133 1   
   128  127  128 1   
   129  127  130 1   
   130  127  134 1   
   131  128  129 2   
   132  128  140 1   
   133  130  131 1   
   134  130  132 1   
   135  130  135 1   
   136  131  137 1   
   137  131  138 1   
   138  131  139 1   
   139  132  136 1   
   140  140  141 1   
   141  140  149 1   
   142  141  142 1   
   143  141  144 1   
   144  141  150 1   
   145  142  143 2   
   146  142  162 1   
   147  144  145 1   
   148  144  151 1   
   149  144  152 1   
   150  145  146 1   
   151  145  153 1   
   152  145  154 1   
   153  146  147 1   
   154  146  155 1   
   155  146  156 1   
   156  147  148 1   
   157  147  157 1   
   158  147  158 1   
   159  148  159 1   
   160  148  160 1   
   161  148  161 1   
   162  162  163 1   
   163  162  171 1   
   164  163  164 1   
   165  163  166 1   
   166  163  172 1   
   167  164  165 2   
   168  164  177 1   
   169  166  167 1   
   170  166  173 1   
   171  166  174 1   
   172  167  168 1   
   173  167  175 1   
   174  167  176 1   
   175  168  169 1   
   176  168  170 1   
   177  177  178 1   
   178  177  182 1   
   179  178  179 1   
   180  178  180 1   
   181  178  181 1   
   182  184  185 1   
   183  184  186 1   
   184  187  188 1   
   185  187  189 1   
   186  190  191 1   
   187  190  192 1   
   188  193  194 1   
   189  193  195 1   
@<TRIPOS>SUBSTRUCTURE
     1 MOL         1 TEMP              0 ****  ****    0 ROOT
