@<TRIPOS>MOLECULE
MOL
  186   183     1     0     0
SMALL
resp


@<TRIPOS>ATOM
      1 C1          4.3830    4.0130   -3.8880 c3        1 MOL     -0.315303
      2 C2          5.1400    3.2620   -2.7350 c         1 MOL      0.710821
      3 O1          4.6450    3.0880   -1.6590 o         1 MOL     -0.524122
      4 H1          4.9890    3.9900   -4.7950 hc        1 MOL      0.081855
      5 H2          3.4290    3.5220   -4.0780 hc        1 MOL      0.081855
      6 H3          4.2080    5.0480   -3.5960 hc        1 MOL      0.081855
      7 N1          6.3860    2.7220   -3.0660 n         1 MOL     -0.706913
      8 C3          7.1740    1.7610   -2.3690 c3        1 MOL      0.220133
      9 C4          6.2930    0.5420   -1.9340 c         1 MOL      0.423713
     10 O2          5.9110    0.5300   -0.7600 o         1 MOL     -0.484987
     11 C5          8.1670    2.2440   -1.3720 c3        1 MOL     -0.044249
     12 C6          7.5990    3.3780   -0.4880 c         1 MOL      0.670553
     13 O3          6.8130    3.0800    0.4230 o         1 MOL     -0.703703
     14 O4          8.1360    4.4890   -0.5930 o         1 MOL     -0.703703
     15 H4          6.5810    2.9440   -4.0390 hn        1 MOL      0.326230
     16 H5          7.7530    1.1560   -3.0770 h1        1 MOL     -0.013837
     17 H6          9.1350    2.4760   -1.8230 hc        1 MOL     -0.004968
     18 H7          8.3780    1.4000   -0.7170 hc        1 MOL     -0.004968
     19 N2          5.8710   -0.3020   -2.8950 n         1 MOL     -0.530778
     20 C7          4.9380   -1.4450   -2.7610 c3        1 MOL      0.218816
     21 C8          5.4230   -2.6680   -1.8420 c         1 MOL      0.385526
     22 O5          5.7820   -3.6930   -2.4330 o         1 MOL     -0.563076
     23 C9          3.4920   -0.9590   -2.4900 c3        1 MOL      0.068871
     24 C10         2.5140   -2.0840   -2.6570 c3        1 MOL      0.093355
     25 C11         3.0880    0.2690   -3.2490 c3        1 MOL      0.039407
     26 C12         2.4040   -2.6700   -4.1000 c3        1 MOL     -0.421615
     27 H8          6.4130   -0.3320   -3.7460 hn        1 MOL      0.303811
     28 H9          4.9160   -1.9550   -3.7200 h1        1 MOL     -0.007505
     29 H10         3.4910   -0.5940   -1.4520 hc        1 MOL     -0.097860
     30 H11         1.4960   -1.8030   -2.3970 hc        1 MOL      0.038887
     31 H12         2.8090   -2.8690   -1.9620 hc        1 MOL      0.038887
     32 H13         3.4660    0.3500   -4.2760 hc        1 MOL     -0.022071
     33 H14         2.0000    0.3730   -3.2760 hc        1 MOL     -0.022071
     34 H15         3.4980    1.1470   -2.7470 hc        1 MOL     -0.022071
     35 H16         2.2240   -1.9650   -4.9000 hc        1 MOL      0.089893
     36 H17         3.3530   -3.1760   -4.2780 hc        1 MOL      0.089893
     37 H18         1.6440   -3.4450   -4.0290 hc        1 MOL      0.089893
     38 N3          5.4580   -2.4740   -0.5470 n         1 MOL     -0.133931
     39 C13         6.3900   -3.2400    0.3130 c3        1 MOL      0.093518
     40 C14         5.7660   -4.5190    0.8520 c         1 MOL      0.470101
     41 O6          6.5120   -5.4690    0.8690 o         1 MOL     -0.545823
     42 C15         6.8710   -2.3790    1.5010 c3        1 MOL     -0.311808
     43 C16         8.0880   -2.9450    2.2450 c         1 MOL      0.776979
     44 O7          9.1080   -3.2900    1.6180 o         1 MOL     -0.746379
     45 O8          8.1160   -2.9380    3.5220 o         1 MOL     -0.746379
     46 H19         5.2970   -1.5130   -0.2820 hn        1 MOL      0.207619
     47 H20         7.2800   -3.6310   -0.1900 h1        1 MOL      0.052273
     48 H21         6.1020   -2.1570    2.2420 hc        1 MOL      0.076791
     49 H22         7.1380   -1.4020    1.0930 hc        1 MOL      0.076791
     50 N4          4.5470   -4.6800    1.3330 n         1 MOL     -0.443509
     51 C17         3.5960   -3.6420    1.4340 c3        1 MOL      0.213367
     52 C18         2.5250   -3.8500    2.4590 c         1 MOL      0.496581
     53 O9          2.1030   -4.9810    2.7180 o         1 MOL     -0.590210
     54 H23         4.2320   -5.6200    1.5460 hn        1 MOL      0.273618
     55 H24         3.1540   -3.3610    0.4840 h1        1 MOL     -0.012603
     56 H25         4.1020   -2.7390    1.7680 h1        1 MOL     -0.012603
     57 N5          1.9570   -2.8520    3.1680 n         1 MOL     -0.367680
     58 C19         2.2250   -1.4690    3.1450 c3        1 MOL      0.025540
     59 C20         2.4140   -0.7940    1.7430 c         1 MOL      0.011662
     60 O10         3.5250   -0.5420    1.2910 o         1 MOL     -0.560290
     61 C21         3.3520   -1.1060    4.1040 c3        1 MOL     -0.120298
     62 C22         3.4830    0.3160    4.3270 c         1 MOL      0.726282
     63 O11         3.7870    1.1620    3.4270 o         1 MOL     -0.700853
     64 O12         3.4610    0.7100    5.5020 o         1 MOL     -0.700853
     65 H26         1.2110   -3.2280    3.7470 hn        1 MOL      0.263079
     66 H27         1.3280   -1.0370    3.5790 h1        1 MOL      0.126618
     67 H28         4.2600   -1.5750    3.7170 hc        1 MOL      0.046093
     68 H29         3.2200   -1.6080    5.0660 hc        1 MOL      0.046093
     69 N6          1.4020   -0.5170    0.9820 n         1 MOL     -0.049274
     70 C23        -0.0030   -1.0130    0.9980 c3        1 MOL      0.004976
     71 C24        -0.1110   -2.4270    0.5210 c         1 MOL      0.425755
     72 O13         0.8550   -3.0310    0.1870 o         1 MOL     -0.420466
     73 H30         1.6270    0.0840    0.2000 hn        1 MOL      0.259816
     74 H31        -0.6630   -0.3940    0.3880 h1        1 MOL      0.050934
     75 H32        -0.3870   -1.0650    2.0200 h1        1 MOL      0.050934
     76 N7         -1.3170   -2.9990    0.5540 n         1 MOL     -0.346241
     77 C25        -1.6890   -4.2650   -0.1610 c3        1 MOL      0.012504
     78 C26        -2.4910   -4.0930   -1.4720 c         1 MOL      0.472399
     79 O14        -2.4000   -4.9740   -2.3490 o         1 MOL     -0.553460
     80 C27        -2.3850   -5.3600    0.7880 c3        1 MOL      0.027035
     81 C28        -3.4710   -4.8430    1.7580 c3        1 MOL     -0.260772
     82 C29        -4.7360   -4.4620    0.9310 c         1 MOL      0.497911
     83 N8         -5.7500   -5.2420    0.9510 n         1 MOL     -0.557266
     84 O15        -4.8230   -3.4530    0.2700 o         1 MOL     -0.523348
     85 H33        -2.0780   -2.4210    0.8880 hn        1 MOL      0.234850
     86 H34        -0.7560   -4.7150   -0.5160 h1        1 MOL      0.097494
     87 H35        -1.5440   -5.6740    1.4130 hc        1 MOL      0.036154
     88 H36        -2.7060   -6.2480    0.2480 hc        1 MOL      0.036154
     89 H37        -3.1450   -3.8930    2.1940 hc        1 MOL      0.085830
     90 H38        -3.6770   -5.6150    2.4940 hc        1 MOL      0.085830
     91 H39        -5.6750   -5.9210    1.6950 hn        1 MOL      0.290248
     92 H40        -6.5960   -5.0600    0.4350 hn        1 MOL      0.290248
     93 N9         -2.9090   -2.8570   -1.8260 n         1 MOL     -0.186930
     94 C30        -3.3100   -2.4220   -3.2370 c3        1 MOL     -0.231482
     95 C31        -4.6930   -1.7180   -3.3690 c         1 MOL      0.474008
     96 O16        -5.1560   -1.4030   -4.4710 o         1 MOL     -0.536475
     97 C32        -2.2170   -1.5460   -3.8740 c3        1 MOL      0.115280
     98 C33        -1.0080   -2.4720   -4.3290 c3        1 MOL     -0.163984
     99 C34        -1.5980   -0.6110   -2.8880 c3        1 MOL     -0.163984
    100 H41        -2.7060   -2.2100   -1.0700 hn        1 MOL      0.196549
    101 H42        -3.4420   -3.3030   -3.8720 h1        1 MOL      0.158079
    102 H43        -2.5430   -0.9160   -4.6950 hc        1 MOL      0.051161
    103 H44        -0.2790   -1.9660   -4.9560 hc        1 MOL      0.043476
    104 H45        -0.4770   -2.8470   -3.4550 hc        1 MOL      0.043476
    105 H46        -1.3750   -3.3210   -4.9000 hc        1 MOL      0.043476
    106 H47        -1.0450    0.0070   -3.5960 hc        1 MOL      0.043476
    107 H48        -2.3230    0.0160   -2.3640 hc        1 MOL      0.043476
    108 H49        -1.0530   -1.0660   -2.0640 hc        1 MOL      0.043476
    109 N10        -5.2580   -1.4080   -2.1950 n         1 MOL     -0.339918
    110 C35        -6.5970   -0.9010   -1.9330 c3        1 MOL      0.020854
    111 C36        -6.7550    0.4750   -1.2680 c         1 MOL      0.571514
    112 O17        -7.8390    1.0530   -1.3730 o         1 MOL     -0.576731
    113 C37        -7.3880   -2.0060   -1.2040 c3        1 MOL     -0.250796
    114 C38        -7.5450   -3.3720   -1.8240 c         1 MOL      0.633831
    115 N11        -7.7420   -3.5100   -3.1180 n         1 MOL     -0.727092
    116 O18        -7.8030   -4.3440   -1.1330 o         1 MOL     -0.556695
    117 H50        -4.7530   -1.7060   -1.3780 hn        1 MOL      0.245172
    118 H51        -7.1960   -0.6750   -2.8090 h1        1 MOL      0.062749
    119 H52        -8.3930   -1.7150   -0.8920 hc        1 MOL      0.125010
    120 H53        -6.7220   -2.0600   -0.3370 hc        1 MOL      0.125010
    121 H54        -7.8240   -2.7300   -3.7410 hn        1 MOL      0.352696
    122 H55        -7.8280   -4.4720   -3.4310 hn        1 MOL      0.352696
    123 N12        -5.7410    0.9030   -0.5280 n         1 MOL     -0.428347
    124 C39        -5.8670    1.9890    0.3700 c3        1 MOL      0.192068
    125 C40        -4.4770    2.6480    0.5120 c         1 MOL      0.278896
    126 O19        -3.4980    1.9610    0.2450 o         1 MOL     -0.367684
    127 C41        -6.3170    1.4460    1.7690 c3        1 MOL     -0.102085
    128 C42        -7.7860    0.9730    1.9800 ca        1 MOL     -0.017011
    129 C43        -8.7350    1.9030    2.2620 ca        1 MOL     -0.069810
    130 C44        -8.1050   -0.3880    1.9160 ca        1 MOL     -0.069810
    131 C45       -10.0800    1.4990    2.4910 ca        1 MOL     -0.295494
    132 C46        -9.4230   -0.7880    2.1340 ca        1 MOL     -0.295494
    133 C47       -10.4300    0.1540    2.4040 ca        1 MOL      0.366470
    134 O20       -11.6960   -0.2680    2.6390 oh        1 MOL     -0.499200
    135 H56        -4.9230    0.3090   -0.4560 hn        1 MOL      0.199985
    136 H57        -6.5530    2.7330   -0.0460 h1        1 MOL      0.033862
    137 H58        -6.0870    2.2560    2.4690 hc        1 MOL      0.085745
    138 H59        -5.6440    0.6410    2.0670 hc        1 MOL      0.085745
    139 H60        -8.5420    2.9680    2.2870 ha        1 MOL      0.099560
    140 H61        -7.3290   -1.1080    1.6940 ha        1 MOL      0.099560
    141 H62       -10.8830    2.2230    2.4600 ha        1 MOL      0.134116
    142 H63        -9.6750   -1.8350    2.0180 ha        1 MOL      0.134116
    143 H64       -12.3370    0.4450    2.5870 ho        1 MOL      0.353817
    144 N13        -4.4530    3.8880    0.9750 n         1 MOL     -0.333413
    145 C48        -3.3730    4.8370    1.2720 c3        1 MOL     -0.063056
    146 C49        -2.3680    5.2090    0.1180 c         1 MOL      0.253462
    147 O21        -1.8390    6.3550   -0.0010 o         1 MOL     -0.492385
    148 C50        -2.6240    4.3740    2.5530 c3        1 MOL      0.273736
    149 C51        -3.4910    4.1360    3.7630 c3        1 MOL     -0.260418
    150 C52        -2.6920    3.5590    4.9360 c         1 MOL      0.621231
    151 O22        -2.2310    2.4050    4.7980 o         1 MOL     -0.691195
    152 O23        -2.3960    4.3270    5.9330 o         1 MOL     -0.691195
    153 H65        -5.3880    4.2570    1.1170 hn        1 MOL      0.267019
    154 H66        -3.8650    5.7840    1.4990 h1        1 MOL      0.077202
    155 H67        -1.9040    5.1730    2.7110 hc        1 MOL      0.014262
    156 H68        -2.1350    3.4120    2.3640 hc        1 MOL      0.014262
    157 H69        -4.1620    3.3650    3.3840 hc        1 MOL     -0.009448
    158 H70        -3.9960    5.0790    4.0010 hc        1 MOL     -0.009448
    159 N14        -2.0150    4.2260   -0.6800 n         1 MOL     -0.092641
    160 C53        -0.8340    4.2700   -1.6260 c3        1 MOL     -0.114676
    161 C54        -0.9980    4.9910   -2.9560 c         1 MOL      0.477195
    162 O24        -0.0580    5.5480   -3.5490 o         1 MOL     -0.515397
    163 C55        -0.3550    2.8530   -1.8660 c3        1 MOL     -0.108225
    164 C56         0.0940    2.2000   -0.5550 c3        1 MOL      0.424704
    165 C57         1.4350    2.7610   -0.0460 c         1 MOL      0.489829
    166 O25         1.4850    3.9190    0.4820 o         1 MOL     -0.629925
    167 O26         2.4500    2.0790   -0.1730 o         1 MOL     -0.629925
    168 H71        -2.4840    3.3590   -0.4570 hn        1 MOL      0.149302
    169 H72        -0.0370    4.7570   -1.0650 h1        1 MOL      0.176110
    170 H73         0.4470    2.8150   -2.6160 hc        1 MOL      0.020954
    171 H74        -1.1710    2.3040   -2.3210 hc        1 MOL      0.020954
    172 H75         0.3390    1.1570   -0.7360 hc        1 MOL     -0.188544
    173 H76        -0.6930    2.2330    0.2030 hc        1 MOL     -0.188544
    174 N15        -2.3130    5.1810   -3.2620 n         1 MOL     -0.269705
    175 C58        -2.8110    6.1840   -4.2530 c3        1 MOL     -0.325341
    176 H77        -2.5420    5.8640   -5.2590 h1        1 MOL      0.127021
    177 H78        -3.8960    6.2650   -4.1760 h1        1 MOL      0.127021
    178 H79        -2.3600    7.1540   -4.0470 h1        1 MOL      0.127021
    179 H80        -2.9630    4.8050   -2.5870 hn        1 MOL      0.218592
    180 Ca1         4.6420    1.9060    1.1000 Ca        1 MOL      1.790040
    181 O27         6.6040    1.2190    2.6750 oh        1 MOL     -0.939692
    182 H81         6.5670    0.8540    3.5590 ho        1 MOL      0.448520
    183 H82         7.5440    1.2670    2.4670 ho        1 MOL      0.448520
    184 O28         4.4590    4.0380    2.5500 oh        1 MOL     -0.939692
    185 H83         3.9740    4.8520    2.4040 ho        1 MOL      0.448520
    186 H84         4.7820    4.1080    3.4410 ho        1 MOL      0.448520
@<TRIPOS>BOND
     1    1    2 1   
     2    1    4 1   
     3    1    5 1   
     4    1    6 1   
     5    2    3 2   
     6    2    7 1   
     7    7    8 1   
     8    7   15 1   
     9    8    9 1   
    10    8   11 1   
    11    8   16 1   
    12    9   10 2   
    13    9   19 1   
    14   11   12 1   
    15   11   17 1   
    16   11   18 1   
    17   12   13 1   
    18   12   14 1   
    19   19   20 1   
    20   19   27 1   
    21   20   21 1   
    22   20   23 1   
    23   20   28 1   
    24   21   22 2   
    25   21   38 1   
    26   23   24 1   
    27   23   25 1   
    28   23   29 1   
    29   24   26 1   
    30   24   30 1   
    31   24   31 1   
    32   25   32 1   
    33   25   33 1   
    34   25   34 1   
    35   26   35 1   
    36   26   36 1   
    37   26   37 1   
    38   38   39 1   
    39   38   46 1   
    40   39   40 1   
    41   39   42 1   
    42   39   47 1   
    43   40   41 2   
    44   40   50 1   
    45   42   43 1   
    46   42   48 1   
    47   42   49 1   
    48   43   44 1   
    49   43   45 1   
    50   50   51 1   
    51   50   54 1   
    52   51   52 1   
    53   51   55 1   
    54   51   56 1   
    55   52   53 2   
    56   52   57 1   
    57   57   58 1   
    58   57   65 1   
    59   58   59 1   
    60   58   61 1   
    61   58   66 1   
    62   59   60 2   
    63   59   69 1   
    64   61   62 1   
    65   61   67 1   
    66   61   68 1   
    67   62   63 1   
    68   62   64 1   
    69   69   70 1   
    70   69   73 1   
    71   70   71 1   
    72   70   74 1   
    73   70   75 1   
    74   71   72 2   
    75   71   76 1   
    76   76   77 1   
    77   76   85 1   
    78   77   78 1   
    79   77   80 1   
    80   77   86 1   
    81   78   79 2   
    82   78   93 1   
    83   80   81 1   
    84   80   87 1   
    85   80   88 1   
    86   81   82 1   
    87   81   89 1   
    88   81   90 1   
    89   82   83 1   
    90   82   84 2   
    91   83   91 1   
    92   83   92 1   
    93   93   94 1   
    94   93  100 1   
    95   94   95 1   
    96   94   97 1   
    97   94  101 1   
    98   95   96 2   
    99   95  109 1   
   100   97   98 1   
   101   97   99 1   
   102   97  102 1   
   103   98  103 1   
   104   98  104 1   
   105   98  105 1   
   106   99  106 1   
   107   99  107 1   
   108   99  108 1   
   109  109  110 1   
   110  109  117 1   
   111  110  111 1   
   112  110  113 1   
   113  110  118 1   
   114  111  112 2   
   115  111  123 1   
   116  113  114 1   
   117  113  119 1   
   118  113  120 1   
   119  114  115 1   
   120  114  116 2   
   121  115  121 1   
   122  115  122 1   
   123  123  124 1   
   124  123  135 1   
   125  124  125 1   
   126  124  127 1   
   127  124  136 1   
   128  125  126 2   
   129  125  144 1   
   130  127  128 1   
   131  127  137 1   
   132  127  138 1   
   133  128  129 ar  
   134  128  130 ar  
   135  129  131 ar  
   136  129  139 1   
   137  130  132 ar  
   138  130  140 1   
   139  131  133 ar  
   140  131  141 1   
   141  132  133 ar  
   142  132  142 1   
   143  133  134 1   
   144  134  143 1   
   145  144  145 1   
   146  144  153 1   
   147  145  146 1   
   148  145  148 1   
   149  145  154 1   
   150  146  147 2   
   151  146  159 1   
   152  148  149 1   
   153  148  155 1   
   154  148  156 1   
   155  149  150 1   
   156  149  157 1   
   157  149  158 1   
   158  150  151 1   
   159  150  152 1   
   160  159  160 1   
   161  159  168 1   
   162  160  161 1   
   163  160  163 1   
   164  160  169 1   
   165  161  162 2   
   166  161  174 1   
   167  163  164 1   
   168  163  170 1   
   169  163  171 1   
   170  164  165 1   
   171  164  172 1   
   172  164  173 1   
   173  165  166 1   
   174  165  167 1   
   175  174  175 1   
   176  174  179 1   
   177  175  176 1   
   178  175  177 1   
   179  175  178 1   
   180  181  182 1   
   181  181  183 1   
   182  184  185 1   
   183  184  186 1   
@<TRIPOS>SUBSTRUCTURE
     1 MOL         1 TEMP              0 ****  ****    0 ROOT
