@<TRIPOS>MOLECULE
MOL
  195   189     1     0     0
SMALL
resp


@<TRIPOS>ATOM
      1 C1          3.3410   -4.6350    1.6810 c3        1 MOL     -0.551352
      2 C2          4.4120   -3.9860    0.7480 c         1 MOL      0.866890
      3 O1          4.7090   -2.8230    0.9870 o         1 MOL     -0.543613
      4 H1          3.7920   -4.8660    2.6460 hc        1 MOL      0.104748
      5 H2          2.5130   -3.9400    1.8230 hc        1 MOL      0.104748
      6 H3          2.9700   -5.5530    1.2250 hc        1 MOL      0.104748
      7 N1          4.8330   -4.6140   -0.4340 n         1 MOL     -0.572535
      8 C3          5.8510   -4.1430   -1.3580 c3        1 MOL     -0.092130
      9 C4          7.2720   -4.0430   -0.7800 c         1 MOL      0.537676
     10 O2          8.1080   -4.3230   -1.5460 o         1 MOL     -0.493942
     11 C5          5.4750   -2.9590   -2.1820 c3        1 MOL     -0.246601
     12 C6          4.1290   -3.1710   -2.7600 c         1 MOL      0.609571
     13 O3          3.1930   -2.4900   -2.3120 o         1 MOL     -0.690000
     14 O4          3.9490   -4.0040   -3.7040 o         1 MOL     -0.690000
     15 H4          4.5170   -5.5690   -0.5280 hn        1 MOL      0.329686
     16 H5          5.9670   -4.9090   -2.1170 h1        1 MOL      0.083697
     17 H6          6.1790   -2.6510   -2.9540 hc        1 MOL      0.140051
     18 H7          5.4250   -2.1270   -1.4690 hc        1 MOL      0.140051
     19 N2          7.5030   -3.6330    0.4950 n         1 MOL     -0.351580
     20 C7          8.8090   -3.3760    1.1400 c3        1 MOL      0.003967
     21 C8          9.8620   -2.8190    0.2060 c         1 MOL      0.540165
     22 O5         10.7560   -3.5870   -0.1960 o         1 MOL     -0.562551
     23 C9          9.2770   -4.6770    1.8430 c3        1 MOL     -0.026871
     24 C10         8.2360   -5.3430    2.7910 c3        1 MOL      0.268586
     25 C11        10.4260   -4.2520    2.8330 c3        1 MOL     -0.143351
     26 C12         8.4570   -6.9030    2.9820 c3        1 MOL     -0.285005
     27 H8          6.6380   -3.5140    1.0020 hn        1 MOL      0.139888
     28 H9          8.5840   -2.6600    1.9360 h1        1 MOL      0.103306
     29 H10         9.7150   -5.4370    1.2040 hc        1 MOL      0.059194
     30 H11         7.2220   -5.3600    2.3860 hc        1 MOL     -0.060684
     31 H12         8.1770   -4.8910    3.7830 hc        1 MOL     -0.060684
     32 H13        11.1680   -3.6400    2.3360 hc        1 MOL      0.022819
     33 H14        10.0460   -3.5840    3.6090 hc        1 MOL      0.022819
     34 H15        10.9200   -5.0510    3.4000 hc        1 MOL      0.022819
     35 H16         9.4710   -6.9840    3.3720 hc        1 MOL      0.047658
     36 H17         7.7620   -7.3480    3.6910 hc        1 MOL      0.047658
     37 H18         8.2440   -7.4110    2.0410 hc        1 MOL      0.047658
     38 N3          9.8640   -1.5410   -0.1740 n         1 MOL     -0.459434
     39 C13         8.8280   -0.4400   -0.0420 c3        1 MOL      0.252405
     40 C14         8.1960   -0.0420   -1.4160 c         1 MOL      0.502667
     41 O6          8.6410   -0.4830   -2.4950 o         1 MOL     -0.574732
     42 C15         9.4730    0.7150    0.7730 c3        1 MOL     -0.296930
     43 C16         8.4640    1.4740    1.5700 c         1 MOL      0.679051
     44 O7          8.7460    1.9590    2.6900 o         1 MOL     -0.685661
     45 O8          7.2490    1.5140    1.2490 o         1 MOL     -0.685661
     46 H19        10.5470   -1.2820   -0.8840 hn        1 MOL      0.264859
     47 H20         8.0180   -0.8600    0.5410 h1        1 MOL      0.042947
     48 H21         9.9090    1.3820    0.0300 hc        1 MOL      0.050941
     49 H22        10.3130    0.4000    1.3940 hc        1 MOL      0.050941
     50 N4          7.0610    0.5650   -1.3730 n         1 MOL     -0.458774
     51 C17         5.9940    0.6650   -2.3870 c3        1 MOL      0.047635
     52 C18         5.6130    2.1730   -2.6790 c         1 MOL      0.496099
     53 O9          6.4480    3.0180   -2.8610 o         1 MOL     -0.556444
     54 H23         6.8060    0.9170   -0.4570 hn        1 MOL      0.250680
     55 H24         5.1240    0.1200   -2.0110 h1        1 MOL      0.070175
     56 H25         6.2270    0.2730   -3.3690 h1        1 MOL      0.070175
     57 N5          4.3550    2.4420   -2.6960 n         1 MOL     -0.227778
     58 C19         3.8110    3.7400   -2.9830 c3        1 MOL     -0.290966
     59 C20         3.7940    4.7450   -1.8420 c         1 MOL      0.519323
     60 O10         3.5100    5.9000   -2.0390 o         1 MOL     -0.547285
     61 C21         2.3410    3.5090   -3.4210 c3        1 MOL      0.045952
     62 C22         1.5510    2.6190   -2.4540 c         1 MOL      0.482106
     63 O11         1.5530    1.3780   -2.5160 o         1 MOL     -0.577458
     64 O12         0.9770    3.2540   -1.5570 o         1 MOL     -0.577458
     65 H26         3.6410    1.7380   -2.5770 hn        1 MOL      0.152371
     66 H27         4.3770    4.1690   -3.8110 h1        1 MOL      0.151408
     67 H28         2.2060    3.0920   -4.4180 hc        1 MOL     -0.000208
     68 H29         1.8270    4.4570   -3.5210 hc        1 MOL     -0.000208
     69 N6          4.0110    4.2790   -0.5890 n         1 MOL     -0.147169
     70 C23         3.7870    5.1010    0.6340 c3        1 MOL     -0.431340
     71 C24         2.4770    5.8250    0.9120 c         1 MOL      0.568185
     72 O13         2.4160    6.6470    1.8670 o         1 MOL     -0.617534
     73 H30         4.3310    3.3260   -0.4930 hn        1 MOL      0.276037
     74 H31         4.5150    5.9080    0.5630 h1        1 MOL      0.163596
     75 H32         3.7700    4.5320    1.5610 h1        1 MOL      0.163596
     76 N7          1.4220    5.4850    0.2420 n         1 MOL      0.109388
     77 C25         0.1170    6.1600    0.3540 c3        1 MOL      0.058498
     78 C26        -0.5980    6.1320    1.7510 c         1 MOL      0.600917
     79 O14        -1.3170    7.0630    2.1070 o         1 MOL     -0.528267
     80 C27        -0.1040    7.5550   -0.3320 c3        1 MOL      0.041677
     81 C28         0.4810    7.6260   -1.7820 c3        1 MOL     -0.122276
     82 C29        -0.1920    8.7050   -2.7400 c         1 MOL      0.626764
     83 N8          0.4800    9.0340   -3.8010 n         1 MOL     -0.773146
     84 O15        -1.3300    9.1450   -2.5710 o         1 MOL     -0.566553
     85 H33         1.5190    4.8050   -0.4920 hn        1 MOL     -0.091619
     86 H34        -0.5480    5.6050   -0.3140 h1        1 MOL      0.065150
     87 H35         0.3090    8.3440    0.2960 hc        1 MOL     -0.017235
     88 H36        -1.1960    7.5830   -0.4370 hc        1 MOL     -0.017235
     89 H37         0.3680    6.6380   -2.2450 hc        1 MOL      0.045407
     90 H38         1.5400    7.8910   -1.6940 hc        1 MOL      0.045407
     91 H39         1.3900    8.6160   -3.9450 hn        1 MOL      0.347037
     92 H40         0.0800    9.6680   -4.4820 hn        1 MOL      0.347037
     93 N9         -0.3520    5.0270    2.4850 n         1 MOL     -0.646397
     94 C30        -0.8780    4.8000    3.8470 c3        1 MOL      0.050015
     95 C31        -1.8750    3.6180    3.9850 c         1 MOL      0.494592
     96 O16        -2.4920    3.4910    5.0770 o         1 MOL     -0.586884
     97 C32         0.2820    4.6350    4.8120 c3        1 MOL      0.385640
     98 C33         1.0970    3.3910    4.5650 c3        1 MOL     -0.404928
     99 C34         1.1900    5.8450    4.9120 c3        1 MOL     -0.404928
    100 H41         0.1420    4.2280    2.1210 hn        1 MOL      0.241654
    101 H42        -1.4790    5.6640    4.1560 h1        1 MOL      0.074632
    102 H43        -0.2090    4.6000    5.7830 hc        1 MOL     -0.072670
    103 H44         0.6150    2.4450    4.7840 hc        1 MOL      0.098753
    104 H45         1.4200    3.2930    3.5310 hc        1 MOL      0.098753
    105 H46         2.0670    3.5400    5.0430 hc        1 MOL      0.098753
    106 H47         0.5730    6.7340    4.7900 hc        1 MOL      0.098753
    107 H48         1.6840    5.8660    5.8790 hc        1 MOL      0.098753
    108 H49         1.8930    5.8460    4.0780 hc        1 MOL      0.098753
    109 N10        -2.0350    2.8080    2.9970 n         1 MOL     -0.285883
    110 C35        -2.8190    1.6290    3.0040 c3        1 MOL      0.065620
    111 C36        -3.4500    1.3950    1.6550 c         1 MOL      0.562098
    112 O17        -3.0560    2.0640    0.6690 o         1 MOL     -0.552673
    113 C37        -1.7720    0.5290    3.2560 c3        1 MOL     -0.398056
    114 C38        -2.3800   -0.6180    4.0470 c         1 MOL      0.711943
    115 N11        -1.5830   -1.2860    4.7590 n         1 MOL     -0.696058
    116 O18        -3.5320   -0.9870    3.9600 o         1 MOL     -0.564521
    117 H50        -1.5630    2.8670    2.1070 hn        1 MOL      0.246808
    118 H51        -3.4810    1.6260    3.8640 h1        1 MOL      0.097742
    119 H52        -0.9730    0.9800    3.8450 hc        1 MOL      0.129850
    120 H53        -1.3190    0.1780    2.3360 hc        1 MOL      0.129850
    121 H54        -0.6090   -1.0170    4.7950 hn        1 MOL      0.318940
    122 H55        -1.8670   -2.0710    5.3230 hn        1 MOL      0.318940
    123 N12        -4.3590    0.3780    1.4910 n         1 MOL     -0.479337
    124 C39        -5.0090    0.1670    0.2230 c3        1 MOL      0.029767
    125 C40        -6.3770   -0.5010    0.3570 c         1 MOL      0.583108
    126 O19        -6.5620   -1.0970    1.4310 o         1 MOL     -0.582448
    127 C41        -4.1240   -0.5870   -0.7190 c3        1 MOL     -0.623448
    128 C42        -4.5050   -0.4490   -2.1450 ca        1 MOL      0.295892
    129 C43        -4.3020    0.8150   -2.8260 ca        1 MOL     -0.326528
    130 C44        -5.1930   -1.4950   -2.8830 ca        1 MOL     -0.326528
    131 C45        -4.6490    0.8900   -4.1340 ca        1 MOL     -0.197865
    132 C46        -5.5820   -1.2550   -4.2080 ca        1 MOL     -0.197865
    133 C47        -5.2470   -0.1180   -4.8990 ca        1 MOL      0.293254
    134 O20        -5.6630    0.1160   -6.1410 oh        1 MOL     -0.485696
    135 H56        -4.6340   -0.2290    2.2500 hn        1 MOL      0.290174
    136 H57        -5.0960    1.1740   -0.1740 h1        1 MOL      0.094211
    137 H58        -4.0260   -1.6170   -0.3680 hc        1 MOL      0.262523
    138 H59        -3.0920   -0.2660   -0.6030 hc        1 MOL      0.262523
    139 H60        -3.8060    1.6560   -2.3450 ha        1 MOL      0.215279
    140 H61        -5.3930   -2.4020   -2.3350 ha        1 MOL      0.215279
    141 H62        -4.5650    1.8400   -4.6330 ha        1 MOL      0.127243
    142 H63        -6.2320   -1.9980   -4.6720 ha        1 MOL      0.127243
    143 H64        -5.3360    0.9700   -6.4300 ho        1 MOL      0.373088
    144 N13        -7.3110   -0.3900   -0.6530 n         1 MOL     -0.431525
    145 C48        -8.6450   -1.0120   -0.6370 c3        1 MOL      0.086901
    146 C49        -8.6850   -2.0790   -1.7290 c         1 MOL      0.602692
    147 O21        -9.1240   -1.8780   -2.8280 o         1 MOL     -0.570218
    148 C50        -9.8360   -0.0510   -0.6110 c3        1 MOL      0.070418
    149 C51        -9.7780    0.8950    0.6020 c3        1 MOL     -0.055495
    150 C52       -11.0490    1.7670    0.7480 c         1 MOL      0.658173
    151 O22       -11.5630    2.2800   -0.2830 o         1 MOL     -0.695248
    152 O23       -11.6280    1.8020    1.8340 o         1 MOL     -0.695248
    153 H65        -6.9690    0.2120   -1.3820 hn        1 MOL      0.313700
    154 H66        -8.8990   -1.5130    0.2920 h1        1 MOL      0.072116
    155 H67       -10.7410   -0.6540   -0.5800 hc        1 MOL     -0.014327
    156 H68        -9.9140    0.5500   -1.5090 hc        1 MOL     -0.014327
    157 H69        -8.8910    1.5240    0.5300 hc        1 MOL     -0.020313
    158 H70        -9.6980    0.3720    1.5560 hc        1 MOL     -0.020313
    159 N14        -8.4120   -3.3150   -1.4310 n         1 MOL     -0.558081
    160 C53        -7.6650   -3.7610   -0.2510 c3        1 MOL     -0.055963
    161 C54        -8.5540   -3.8940    0.9790 c         1 MOL      0.462742
    162 O24        -9.7500   -4.2680    0.9500 o         1 MOL     -0.529347
    163 C55        -7.0670   -5.1610   -0.6580 c3        1 MOL     -0.082805
    164 C56        -5.9160   -5.5600    0.2060 c3        1 MOL      0.058531
    165 C57        -4.6470   -4.8060   -0.1810 c         1 MOL      0.249650
    166 O25        -3.9570   -5.1530   -1.1780 o         1 MOL     -0.605038
    167 O26        -4.2630   -3.8890    0.5720 o         1 MOL     -0.605038
    168 H71        -8.6040   -4.0450   -2.1010 hn        1 MOL      0.311066
    169 H72        -6.8340   -3.0770   -0.0980 h1        1 MOL      0.211032
    170 H73        -6.7300   -5.0380   -1.6850 hc        1 MOL      0.067484
    171 H74        -7.9120   -5.8470   -0.6830 hc        1 MOL      0.067484
    172 H75        -5.6620   -6.6030    0.0270 hc        1 MOL     -0.024618
    173 H76        -6.1340   -5.2930    1.2290 hc        1 MOL     -0.024618
    174 N15        -8.0450   -3.6880    2.2070 n         1 MOL     -0.241566
    175 C58        -8.6910   -3.8340    3.5370 c3        1 MOL     -0.223865
    176 H77        -7.9650   -4.2190    4.2530 h1        1 MOL      0.102802
    177 H78        -9.0520   -2.8630    3.8750 h1        1 MOL      0.102802
    178 H79        -9.5280   -4.5280    3.4610 h1        1 MOL      0.102802
    179 H80        -7.0440   -3.5410    2.2200 hn        1 MOL      0.272510
    180 Ca1        -1.6340   -4.2350   -0.1520 Ca        1 MOL      1.720446
    181 O27        -2.2780   -2.8830   -2.4620 oh        1 MOL     -0.900716
    182 H81        -2.9440   -3.0450   -3.1270 ho        1 MOL      0.436590
    183 H82        -1.8400   -2.0790   -2.7590 ho        1 MOL      0.436590
    184 O28        -0.8460   -5.8350   -2.3970 oh        1 MOL     -0.900716
    185 H83         0.0400   -6.1330   -2.5830 ho        1 MOL      0.436590
    186 H84        -1.3800   -6.2480   -3.0690 ho        1 MOL      0.436590
    187 O29        -0.7310   -1.7540    0.3230 oh        1 MOL     -0.900716
    188 H85        -0.6750   -0.9800   -0.2350 ho        1 MOL      0.436590
    189 H86        -0.0470   -1.6220    0.9780 ho        1 MOL      0.436590
    190 O30         0.7740   -3.4640   -1.4870 oh        1 MOL     -0.900716
    191 H87         0.8880   -4.0430   -2.2400 ho        1 MOL      0.436590
    192 H88         1.5130   -2.8480   -1.5440 ho        1 MOL      0.436590
    193 O31        -1.7230   -4.2550    2.6100 oh        1 MOL     -0.900716
    194 H89        -2.6150   -4.3640    2.9200 ho        1 MOL      0.436590
    195 H90        -1.1770   -4.5290    3.3510 ho        1 MOL      0.436590
@<TRIPOS>BOND
     1    1    2 1   
     2    1    4 1   
     3    1    5 1   
     4    1    6 1   
     5    2    3 2   
     6    2    7 1   
     7    7    8 1   
     8    7   15 1   
     9    8    9 1   
    10    8   11 1   
    11    8   16 1   
    12    9   10 2   
    13    9   19 1   
    14   11   12 1   
    15   11   17 1   
    16   11   18 1   
    17   12   13 1   
    18   12   14 1   
    19   19   20 1   
    20   19   27 1   
    21   20   21 1   
    22   20   23 1   
    23   20   28 1   
    24   21   22 2   
    25   21   38 1   
    26   23   24 1   
    27   23   25 1   
    28   23   29 1   
    29   24   26 1   
    30   24   30 1   
    31   24   31 1   
    32   25   32 1   
    33   25   33 1   
    34   25   34 1   
    35   26   35 1   
    36   26   36 1   
    37   26   37 1   
    38   38   39 1   
    39   38   46 1   
    40   39   40 1   
    41   39   42 1   
    42   39   47 1   
    43   40   41 2   
    44   40   50 1   
    45   42   43 1   
    46   42   48 1   
    47   42   49 1   
    48   43   44 1   
    49   43   45 1   
    50   50   51 1   
    51   50   54 1   
    52   51   52 1   
    53   51   55 1   
    54   51   56 1   
    55   52   53 2   
    56   52   57 1   
    57   57   58 1   
    58   57   65 1   
    59   58   59 1   
    60   58   61 1   
    61   58   66 1   
    62   59   60 2   
    63   59   69 1   
    64   61   62 1   
    65   61   67 1   
    66   61   68 1   
    67   62   63 1   
    68   62   64 1   
    69   69   70 1   
    70   69   73 1   
    71   70   71 1   
    72   70   74 1   
    73   70   75 1   
    74   71   72 2   
    75   71   76 1   
    76   76   77 1   
    77   76   85 1   
    78   77   78 1   
    79   77   80 1   
    80   77   86 1   
    81   78   79 2   
    82   78   93 1   
    83   80   81 1   
    84   80   87 1   
    85   80   88 1   
    86   81   82 1   
    87   81   89 1   
    88   81   90 1   
    89   82   83 1   
    90   82   84 2   
    91   83   91 1   
    92   83   92 1   
    93   93   94 1   
    94   93  100 1   
    95   94   95 1   
    96   94   97 1   
    97   94  101 1   
    98   95   96 2   
    99   95  109 1   
   100   97   98 1   
   101   97   99 1   
   102   97  102 1   
   103   98  103 1   
   104   98  104 1   
   105   98  105 1   
   106   99  106 1   
   107   99  107 1   
   108   99  108 1   
   109  109  110 1   
   110  109  117 1   
   111  110  111 1   
   112  110  113 1   
   113  110  118 1   
   114  111  112 2   
   115  111  123 1   
   116  113  114 1   
   117  113  119 1   
   118  113  120 1   
   119  114  115 1   
   120  114  116 2   
   121  115  121 1   
   122  115  122 1   
   123  123  124 1   
   124  123  135 1   
   125  124  125 1   
   126  124  127 1   
   127  124  136 1   
   128  125  126 2   
   129  125  144 1   
   130  127  128 1   
   131  127  137 1   
   132  127  138 1   
   133  128  129 ar  
   134  128  130 ar  
   135  129  131 ar  
   136  129  139 1   
   137  130  132 ar  
   138  130  140 1   
   139  131  133 ar  
   140  131  141 1   
   141  132  133 ar  
   142  132  142 1   
   143  133  134 1   
   144  134  143 1   
   145  144  145 1   
   146  144  153 1   
   147  145  146 1   
   148  145  148 1   
   149  145  154 1   
   150  146  147 2   
   151  146  159 1   
   152  148  149 1   
   153  148  155 1   
   154  148  156 1   
   155  149  150 1   
   156  149  157 1   
   157  149  158 1   
   158  150  151 1   
   159  150  152 1   
   160  159  160 1   
   161  159  168 1   
   162  160  161 1   
   163  160  163 1   
   164  160  169 1   
   165  161  162 2   
   166  161  174 1   
   167  163  164 1   
   168  163  170 1   
   169  163  171 1   
   170  164  165 1   
   171  164  172 1   
   172  164  173 1   
   173  165  166 1   
   174  165  167 1   
   175  174  175 1   
   176  174  179 1   
   177  175  176 1   
   178  175  177 1   
   179  175  178 1   
   180  181  182 1   
   181  181  183 1   
   182  184  185 1   
   183  184  186 1   
   184  187  188 1   
   185  187  189 1   
   186  190  191 1   
   187  190  192 1   
   188  193  194 1   
   189  193  195 1   
@<TRIPOS>SUBSTRUCTURE
     1 MOL         1 TEMP              0 ****  ****    0 ROOT
