@<TRIPOS>MOLECULE
MOL
  178   175     1     0     0
SMALL
resp


@<TRIPOS>ATOM
      1 C1          2.4820   -2.6200    3.8100 c3        1 MOL     -0.164847
      2 C2          3.5960   -1.9260    3.1990 c         1 MOL      0.631219
      3 O1          3.7310   -1.8910    1.9660 o         1 MOL     -0.525926
      4 H1          1.7020   -1.9010    4.0630 hc        1 MOL      0.031599
      5 H2          2.0830   -3.3550    3.1100 hc        1 MOL      0.031599
      6 H3          2.8190   -3.1240    4.7150 hc        1 MOL      0.031599
      7 N1          4.4860   -1.4460    4.0450 n         1 MOL     -0.491386
      8 C3          5.6750   -0.6110    3.6720 c3        1 MOL      0.117222
      9 C4          6.4270   -1.1070    2.4020 c         1 MOL      0.518377
     10 O2          6.5230   -0.4100    1.4390 o         1 MOL     -0.480976
     11 C5          6.6340   -0.4590    4.9060 c3        1 MOL     -0.258972
     12 C6          7.8410    0.4370    4.5120 c         1 MOL      0.819869
     13 O3          7.6990    1.6630    4.3520 o         1 MOL     -0.742323
     14 O4          8.9360   -0.0890    4.4120 o         1 MOL     -0.742323
     15 H4          4.1430   -1.3950    4.9860 hn        1 MOL      0.288277
     16 H5          5.3900    0.4200    3.4520 h1        1 MOL      0.049782
     17 H6          6.9680   -1.3660    5.3890 hc        1 MOL      0.004355
     18 H7          6.0740    0.1270    5.6320 hc        1 MOL      0.004355
     19 N2          6.8080   -2.3730    2.4050 n         1 MOL     -0.432531
     20 C7          7.7170   -3.0680    1.3690 c3        1 MOL      0.147418
     21 C8          7.1750   -3.0600   -0.0880 c         1 MOL      0.506774
     22 O5          7.8470   -3.2540   -1.0590 o         1 MOL     -0.554929
     23 C9          9.1350   -2.5090    1.4800 c3        1 MOL     -0.391824
     24 H8          6.4830   -2.9430    3.1680 hn        1 MOL      0.255082
     25 H9          7.6830   -4.1210    1.6340 h1        1 MOL      0.063538
     26 H10         9.2260   -1.4650    1.2000 hc        1 MOL      0.116773
     27 H11         9.5630   -2.6290    2.4710 hc        1 MOL      0.116773
     28 H12         9.8490   -3.1210    0.9130 hc        1 MOL      0.116773
     29 N3          5.8900   -2.7950   -0.2690 n         1 MOL     -0.626190
     30 C10         5.1760   -2.5970   -1.4890 c3        1 MOL      0.535062
     31 C11         5.5670   -1.2390   -2.1710 c         1 MOL      0.259430
     32 O6          5.3700   -1.0840   -3.3700 o         1 MOL     -0.471623
     33 C12         5.1660   -3.8290   -2.3960 c3        1 MOL     -0.049365
     34 C13         4.0390   -3.8920   -3.4280 c         1 MOL      0.585503
     35 O7          4.3300   -4.4610   -4.5000 o         1 MOL     -0.705100
     36 O8          2.9330   -3.3110   -3.2370 o         1 MOL     -0.705100
     37 H13         5.3540   -2.5080    0.5420 hn        1 MOL      0.244857
     38 H14         4.1480   -2.4020   -1.2070 h1        1 MOL     -0.051892
     39 H15         5.2490   -4.7520   -1.8080 hc        1 MOL      0.004178
     40 H16         6.1210   -3.8100   -2.9310 hc        1 MOL      0.004178
     41 N4          5.9850   -0.2220   -1.4030 n         1 MOL     -0.033222
     42 C14         6.2770    1.1590   -1.8310 c3        1 MOL     -0.282587
     43 C15         5.1330    2.0740   -2.2590 c         1 MOL      0.673079
     44 O9          5.3680    3.1160   -2.9600 o         1 MOL     -0.608011
     45 H17         5.9880   -0.4700   -0.4250 hn        1 MOL      0.124488
     46 H18         7.0530    1.1810   -2.6010 h1        1 MOL      0.115106
     47 H19         6.7410    1.6060   -0.9490 h1        1 MOL      0.115106
     48 N5          3.9070    1.6770   -1.9530 n         1 MOL     -0.396257
     49 C16         2.7640    2.4650   -2.4620 c3        1 MOL     -0.021824
     50 C17         2.4940    3.8710   -1.8570 c         1 MOL      0.585115
     51 O10         2.6130    4.0100   -0.6300 o         1 MOL     -0.541381
     52 C18         1.4980    1.5440   -2.4090 c3        1 MOL     -0.463303
     53 C19         1.8450    0.2660   -3.1860 c         1 MOL      0.679514
     54 N6          1.9800    0.3310   -4.4760 n         1 MOL     -0.704469
     55 O11         2.0200   -0.7370   -2.5920 o         1 MOL     -0.560672
     56 H20         3.7390    0.7780   -1.5180 hn        1 MOL      0.290701
     57 H21         2.9580    2.5550   -3.5280 h1        1 MOL      0.043441
     58 H22         0.7080    2.1130   -2.8930 hc        1 MOL      0.161997
     59 H23         1.1380    1.3270   -1.4050 hc        1 MOL      0.161997
     60 H24         1.7500    1.2050   -4.9360 hn        1 MOL      0.340691
     61 H25         2.1550   -0.5110   -5.0070 hn        1 MOL      0.340691
     62 N7          2.1510    4.8040   -2.7150 n         1 MOL     -0.355179
     63 C20         2.0690    6.2580   -2.3540 c3        1 MOL     -0.233854
     64 C21         0.6160    6.6040   -1.9630 c         1 MOL      0.617094
     65 O12        -0.2890    6.1910   -2.6320 o         1 MOL     -0.518434
     66 H26         2.0540    4.4590   -3.6530 hn        1 MOL      0.284358
     67 H27         2.3290    6.8570   -3.2260 h1        1 MOL      0.125813
     68 H28         2.7080    6.5480   -1.5220 h1        1 MOL      0.125813
     69 N8          0.4560    7.3650   -0.9000 n         1 MOL     -0.516984
     70 C22        -0.8450    7.8400   -0.5310 c3        1 MOL     -0.220640
     71 C23        -1.7020    6.8310    0.1790 c         1 MOL      0.488409
     72 O13        -2.8250    7.1040    0.5350 o         1 MOL     -0.564478
     73 C24        -0.7950    9.1060    0.3060 c3        1 MOL      0.474823
     74 C25        -0.4500    8.9070    1.7700 c3        1 MOL     -0.297682
     75 O14        -0.0170   10.1530   -0.2900 oh        1 MOL     -0.616603
     76 H29         1.3090    7.7150   -0.4760 hn        1 MOL      0.320131
     77 H30        -1.3760    8.0280   -1.4630 h1        1 MOL      0.166718
     78 H31        -1.7950    9.5410    0.2080 h1        1 MOL      0.026627
     79 H32         0.8970    9.8650   -0.2150 ho        1 MOL      0.353811
     80 H33        -0.2040    9.8960    2.1470 hc        1 MOL      0.067628
     81 H34        -1.2910    8.6400    2.4100 hc        1 MOL      0.067628
     82 H35         0.3450    8.1570    1.7840 hc        1 MOL      0.067628
     83 N9         -1.2080    5.5610    0.2090 n         1 MOL     -0.158897
     84 C26        -1.8610    4.3750    0.8650 c3        1 MOL     -0.004808
     85 C27        -1.7260    3.1260   -0.0780 c         1 MOL      0.347165
     86 O15        -0.9090    3.0220   -0.9930 o         1 MOL     -0.422377
     87 C28        -1.0970    4.0010    2.1860 c3        1 MOL      0.188616
     88 C29         0.3690    3.6400    2.1610 c3        1 MOL     -0.077442
     89 C30        -1.5080    5.0450    3.2300 c3        1 MOL     -0.341618
     90 C31         0.8730    3.0500    3.5150 c3        1 MOL     -0.364281
     91 H36        -0.2930    5.4890   -0.2090 hn        1 MOL      0.107708
     92 H37        -2.9180    4.4400    1.1100 h1        1 MOL      0.076032
     93 H38        -1.6030    3.1010    2.5340 hc        1 MOL     -0.039964
     94 H39         0.9440    4.5580    1.9960 hc        1 MOL      0.103884
     95 H40         0.6190    3.0490    1.2820 hc        1 MOL      0.103884
     96 H41        -0.7770    5.8490    3.1580 hc        1 MOL      0.083028
     97 H42        -2.5180    5.3960    3.0190 hc        1 MOL      0.083028
     98 H43        -1.4870    4.6800    4.2540 hc        1 MOL      0.083028
     99 H44         1.1670    3.8830    4.1520 hc        1 MOL      0.100548
    100 H45         0.1060    2.3970    3.9360 hc        1 MOL      0.100548
    101 H46         1.7180    2.4410    3.2080 hc        1 MOL      0.100548
    102 N10        -2.4890    2.1300    0.2690 n         1 MOL     -0.388030
    103 C32        -2.3490    0.7220   -0.2700 c3        1 MOL      0.031923
    104 C33        -3.7210   -0.0320   -0.1760 c         1 MOL      0.508354
    105 O16        -3.8340   -1.2080   -0.1950 o         1 MOL     -0.431121
    106 C34        -1.1930    0.0850    0.5330 c3        1 MOL     -0.051553
    107 C35        -0.6040   -1.0350   -0.3240 c         1 MOL      0.537582
    108 O17         0.2580   -1.7950    0.2160 o         1 MOL     -0.696597
    109 O18        -0.8100   -1.0800   -1.5960 o         1 MOL     -0.696597
    110 H47        -2.8830    2.2460    1.2020 hn        1 MOL      0.232245
    111 H48        -2.0850    0.9150   -1.3080 h1        1 MOL      0.111948
    112 H49        -1.4770   -0.3210    1.5130 hc        1 MOL      0.065635
    113 H50        -0.3720    0.7820    0.6920 hc        1 MOL      0.065635
    114 N11        -4.8760    0.7070   -0.1930 n         1 MOL     -0.389928
    115 C36        -6.1670    0.1430   -0.5450 c3        1 MOL      0.124231
    116 C37        -6.6730   -0.9410    0.4460 c         1 MOL      0.187619
    117 O19        -6.7440   -0.6590    1.6630 o         1 MOL     -0.465704
    118 C38        -7.2500    1.2350   -0.5530 c3        1 MOL     -0.258744
    119 C39        -8.6600    0.7630   -0.6550 ca        1 MOL     -0.044428
    120 C40        -9.1890    0.4050   -1.8770 ca        1 MOL     -0.024578
    121 C41        -9.3920    0.5640    0.5450 ca        1 MOL     -0.024578
    122 C42       -10.4550   -0.1070   -1.9740 ca        1 MOL     -0.224074
    123 C43       -10.6670   -0.0590    0.4790 ca        1 MOL     -0.224074
    124 C44       -11.1380   -0.4340   -0.7410 ca        1 MOL     -0.013407
    125 H51        -4.7720    1.7040   -0.2180 hn        1 MOL      0.209564
    126 H52        -6.0570   -0.2970   -1.5350 h1        1 MOL      0.063668
    127 H53        -7.1050    1.8660   -1.4280 hc        1 MOL      0.120224
    128 H54        -7.1640    1.7740    0.3930 hc        1 MOL      0.120224
    129 H55        -8.7530    0.6110   -2.8540 ha        1 MOL      0.104039
    130 H56        -9.0110    0.7800    1.5350 ha        1 MOL      0.104039
    131 H57       -10.9350   -0.3340   -2.9120 ha        1 MOL      0.137066
    132 H58       -11.2220   -0.1670    1.4040 ha        1 MOL      0.137066
    133 H59       -12.1320   -0.8620   -0.7880 ha        1 MOL      0.070577
    134 N12        -6.9560   -2.1800   -0.0090 n         1 MOL      0.065360
    135 C45        -7.2740   -3.3670    0.8150 c3        1 MOL      0.296407
    136 C46        -6.1990   -3.7070    1.8280 c         1 MOL      0.179822
    137 O20        -6.5710   -4.1420    2.9030 o         1 MOL     -0.493955
    138 C47        -7.4540   -4.5840   -0.1050 c3        1 MOL     -0.280660
    139 C48        -6.8510   -4.0700   -1.3890 c3        1 MOL      0.086181
    140 C49        -7.0500   -2.5710   -1.3510 c3        1 MOL     -0.078900
    141 H60        -8.2020   -3.2180    1.3640 h1        1 MOL      0.006991
    142 H61        -7.0010   -5.4840    0.3160 hc        1 MOL      0.076996
    143 H62        -8.5450   -4.6300   -0.1000 hc        1 MOL      0.076996
    144 H63        -5.8050   -4.3460   -1.5430 hc        1 MOL      0.007915
    145 H64        -7.3690   -4.4630   -2.2710 hc        1 MOL      0.007915
    146 H65        -6.3420   -2.1350   -2.0510 h1        1 MOL      0.016733
    147 H66        -8.0540   -2.4020   -1.7580 h1        1 MOL      0.016733
    148 N13        -4.9590   -3.4560    1.4700 n         1 MOL     -0.082514
    149 C50        -3.8350   -3.8010    2.3410 c3        1 MOL      0.070198
    150 C51        -3.5610   -2.7550    3.4240 c         1 MOL      0.348572
    151 O21        -3.3660   -3.1100    4.6130 o         1 MOL     -0.536899
    152 C52        -2.4320   -3.9680    1.6140 c3        1 MOL      0.055799
    153 C53        -2.5240   -5.2000    0.6510 c3        1 MOL     -0.246442
    154 C54        -1.4380   -4.9330   -0.3810 c         1 MOL      0.707338
    155 O22        -1.6710   -4.4450   -1.4840 o         1 MOL     -0.731329
    156 O23        -0.2230   -5.1070   -0.1210 o         1 MOL     -0.731329
    157 H67        -4.8270   -2.9270    0.6240 hn        1 MOL      0.155779
    158 H68        -4.0190   -4.6990    2.9280 h1        1 MOL      0.064124
    159 H69        -1.6440   -4.1160    2.3570 hc        1 MOL      0.024872
    160 H70        -2.2810   -3.0050    1.1120 hc        1 MOL      0.024872
    161 H71        -3.4840   -5.1680    0.1290 hc        1 MOL      0.043512
    162 H72        -2.4370   -6.1550    1.1640 hc        1 MOL      0.043512
    163 N14        -3.7030   -1.4420    3.1610 n         1 MOL     -0.038410
    164 C55        -3.7750   -0.4990    4.2220 c3        1 MOL     -0.410995
    165 H73        -4.3390   -0.9270    5.0500 h1        1 MOL      0.134890
    166 H74        -2.7680   -0.2500    4.5580 h1        1 MOL      0.134890
    167 H75        -4.2750    0.4040    3.8720 h1        1 MOL      0.134890
    168 H76        -3.8440   -1.0760    2.2330 hn        1 MOL      0.157334
    169 Ca1         0.6830   -3.1480   -1.8780 Ca        1 MOL      1.748368
    170 O24        -0.2970   -2.5900   -4.2610 oh        1 MOL     -0.809594
    171 H77        -1.0060   -2.6280   -4.9020 ho        1 MOL      0.389042
    172 H78         0.4350   -2.2010   -4.7270 ho        1 MOL      0.389042
    173 O25         0.6920   -5.3810   -3.3110 oh        1 MOL     -0.809594
    174 H79        -0.0640   -5.6110   -3.8500 ho        1 MOL      0.389042
    175 H80         1.4460   -5.4880   -3.8870 ho        1 MOL      0.389042
    176 O26         2.7120   -4.8370   -0.9550 oh        1 MOL     -0.809594
    177 H81         2.9700   -5.5660   -1.5220 ho        1 MOL      0.389042
    178 H82         2.2310   -5.2440   -0.2350 ho        1 MOL      0.389042
@<TRIPOS>BOND
     1    1    2 1   
     2    1    4 1   
     3    1    5 1   
     4    1    6 1   
     5    2    3 2   
     6    2    7 1   
     7    7    8 1   
     8    7   15 1   
     9    8    9 1   
    10    8   11 1   
    11    8   16 1   
    12    9   10 2   
    13    9   19 1   
    14   11   12 1   
    15   11   17 1   
    16   11   18 1   
    17   12   13 1   
    18   12   14 1   
    19   19   20 1   
    20   19   24 1   
    21   20   21 1   
    22   20   23 1   
    23   20   25 1   
    24   21   22 2   
    25   21   29 1   
    26   23   26 1   
    27   23   27 1   
    28   23   28 1   
    29   29   30 1   
    30   29   37 1   
    31   30   31 1   
    32   30   33 1   
    33   30   38 1   
    34   31   32 2   
    35   31   41 1   
    36   33   34 1   
    37   33   39 1   
    38   33   40 1   
    39   34   35 1   
    40   34   36 1   
    41   41   42 1   
    42   41   45 1   
    43   42   43 1   
    44   42   46 1   
    45   42   47 1   
    46   43   44 2   
    47   43   48 1   
    48   48   49 1   
    49   48   56 1   
    50   49   50 1   
    51   49   52 1   
    52   49   57 1   
    53   50   51 2   
    54   50   62 1   
    55   52   53 1   
    56   52   58 1   
    57   52   59 1   
    58   53   54 1   
    59   53   55 2   
    60   54   60 1   
    61   54   61 1   
    62   62   63 1   
    63   62   66 1   
    64   63   64 1   
    65   63   67 1   
    66   63   68 1   
    67   64   65 2   
    68   64   69 1   
    69   69   70 1   
    70   69   76 1   
    71   70   71 1   
    72   70   73 1   
    73   70   77 1   
    74   71   72 2   
    75   71   83 1   
    76   73   74 1   
    77   73   75 1   
    78   73   78 1   
    79   74   80 1   
    80   74   81 1   
    81   74   82 1   
    82   75   79 1   
    83   83   84 1   
    84   83   91 1   
    85   84   85 1   
    86   84   87 1   
    87   84   92 1   
    88   85   86 2   
    89   85  102 1   
    90   87   88 1   
    91   87   89 1   
    92   87   93 1   
    93   88   90 1   
    94   88   94 1   
    95   88   95 1   
    96   89   96 1   
    97   89   97 1   
    98   89   98 1   
    99   90   99 1   
   100   90  100 1   
   101   90  101 1   
   102  102  103 1   
   103  102  110 1   
   104  103  104 1   
   105  103  106 1   
   106  103  111 1   
   107  104  105 2   
   108  104  114 1   
   109  106  107 1   
   110  106  112 1   
   111  106  113 1   
   112  107  108 1   
   113  107  109 1   
   114  114  115 1   
   115  114  125 1   
   116  115  116 1   
   117  115  118 1   
   118  115  126 1   
   119  116  117 2   
   120  116  134 1   
   121  118  119 1   
   122  118  127 1   
   123  118  128 1   
   124  119  120 ar  
   125  119  121 ar  
   126  120  122 ar  
   127  120  129 1   
   128  121  123 ar  
   129  121  130 1   
   130  122  124 ar  
   131  122  131 1   
   132  123  124 ar  
   133  123  132 1   
   134  124  133 1   
   135  134  135 1   
   136  134  140 1   
   137  135  136 1   
   138  135  138 1   
   139  135  141 1   
   140  136  137 2   
   141  136  148 1   
   142  138  139 1   
   143  138  142 1   
   144  138  143 1   
   145  139  140 1   
   146  139  144 1   
   147  139  145 1   
   148  140  146 1   
   149  140  147 1   
   150  148  149 1   
   151  148  157 1   
   152  149  150 1   
   153  149  152 1   
   154  149  158 1   
   155  150  151 2   
   156  150  163 1   
   157  152  153 1   
   158  152  159 1   
   159  152  160 1   
   160  153  154 1   
   161  153  161 1   
   162  153  162 1   
   163  154  155 1   
   164  154  156 1   
   165  163  164 1   
   166  163  168 1   
   167  164  165 1   
   168  164  166 1   
   169  164  167 1   
   170  170  171 1   
   171  170  172 1   
   172  173  174 1   
   173  173  175 1   
   174  176  177 1   
   175  176  178 1   
@<TRIPOS>SUBSTRUCTURE
     1 MOL         1 TEMP              0 ****  ****    0 ROOT
