@<TRIPOS>MOLECULE
MOL
  181   177     1     0     0
SMALL
resp


@<TRIPOS>ATOM
      1 C1         -9.3390   -4.5470   -4.9670 c3        1 MOL     -0.307025
      2 C2         -8.5730   -4.5810   -3.7170 c         1 MOL      0.592325
      3 O1         -7.4620   -5.1430   -3.6500 o         1 MOL     -0.573950
      4 H1         -9.9520   -5.4460   -5.0420 hc        1 MOL      0.072462
      5 H2         -9.9840   -3.6680   -4.9760 hc        1 MOL      0.072462
      6 H3         -8.6530   -4.5040   -5.8130 hc        1 MOL      0.072462
      7 N1         -9.0830   -4.1860   -2.6110 n         1 MOL     -0.188897
      8 C3        -10.4010   -3.5730   -2.3100 c3        1 MOL     -0.044367
      9 C4        -10.6650   -3.5860   -0.7880 c         1 MOL      0.598894
     10 O2         -9.9650   -4.2150   -0.0260 o         1 MOL     -0.492562
     11 C5        -10.3670   -2.0950   -2.8030 c3        1 MOL      0.048526
     12 C6         -9.3000   -1.2490   -2.1700 c         1 MOL      0.513591
     13 O3         -8.1680   -1.0790   -2.7310 o         1 MOL     -0.659198
     14 O4         -9.5880   -0.5950   -1.1300 o         1 MOL     -0.659198
     15 H4         -8.6250   -4.5970   -1.8120 hn        1 MOL      0.183390
     16 H5        -11.2610   -4.1070   -2.7260 h1        1 MOL      0.024237
     17 H6        -11.3710   -1.6620   -2.6810 hc        1 MOL     -0.032750
     18 H7        -10.2110   -2.0390   -3.8770 hc        1 MOL     -0.032750
     19 N2        -11.6210   -2.8430   -0.3130 n         1 MOL     -0.642406
     20 C7        -11.8840   -2.6550    1.1300 c3        1 MOL      0.590877
     21 C8        -10.7730   -2.4890    2.1550 c         1 MOL      0.201785
     22 O5        -10.7640   -3.0600    3.1920 o         1 MOL     -0.513487
     23 C9        -12.9550   -3.6660    1.6040 c3        1 MOL     -0.432898
     24 H8        -12.1370   -2.2460   -0.9530 hn        1 MOL      0.307847
     25 H9        -12.4130   -1.6930    1.2080 h1        1 MOL     -0.054639
     26 H10       -12.5510   -4.6710    1.6650 hc        1 MOL      0.095585
     27 H11       -13.2760   -3.2730    2.5680 hc        1 MOL      0.095585
     28 H12       -13.7860   -3.7430    0.9050 hc        1 MOL      0.095585
     29 N3         -9.7060   -1.9010    1.7030 n         1 MOL     -0.040051
     30 C10        -8.3690   -1.8430    2.4040 c3        1 MOL      0.309308
     31 C11        -7.8310   -0.4360    2.3150 c         1 MOL      0.471766
     32 O6         -8.4710    0.4270    1.6840 o         1 MOL     -0.674410
     33 C12        -7.3840   -2.8890    1.8420 c3        1 MOL     -0.346687
     34 C13        -6.8230   -2.5200    0.4780 c         1 MOL      0.739939
     35 O7         -6.2460   -3.4080   -0.1960 o         1 MOL     -0.663208
     36 O8         -6.7280   -1.3760   -0.0130 o         1 MOL     -0.663208
     37 H13        -9.8140   -1.4890    0.7850 hn        1 MOL     -0.019853
     38 H14        -8.5210   -2.0680    3.4520 h1        1 MOL     -0.026304
     39 H15        -7.8060   -3.8920    1.7690 hc        1 MOL      0.083136
     40 H16        -6.5080   -2.9030    2.4870 hc        1 MOL      0.083136
     41 N4         -6.7950   -0.0860    3.0530 n         1 MOL     -0.441197
     42 C14        -6.4730    1.3760    3.2830 c3        1 MOL     -0.370032
     43 C15        -5.9050    2.1180    2.1160 c         1 MOL      0.714489
     44 O9         -6.0000    1.6770    0.9850 o         1 MOL     -0.511675
     45 H17        -6.1480   -0.7710    3.4020 hn        1 MOL      0.342175
     46 H18        -5.7040    1.2760    4.0440 h1        1 MOL      0.185926
     47 H19        -7.3780    1.8800    3.6180 h1        1 MOL      0.185926
     48 N5         -5.2590    3.2700    2.3840 n         1 MOL     -0.558136
     49 C16        -4.5720    4.2280    1.5540 c3        1 MOL      0.357281
     50 C17        -3.0570    4.4350    1.8220 c         1 MOL      0.481145
     51 O10        -2.5510    4.7950    2.9060 o         1 MOL     -0.486044
     52 C18        -5.3710    5.5810    1.4240 c3        1 MOL     -0.521581
     53 C19        -4.6410    6.7070    0.7470 c         1 MOL      0.714789
     54 N6         -4.5440    7.8390    1.4540 n         1 MOL     -0.724389
     55 O11        -4.1880    6.6610   -0.3480 o         1 MOL     -0.565329
     56 H20        -5.2800    3.5540    3.3480 hn        1 MOL      0.260622
     57 H21        -4.6340    3.8380    0.5430 h1        1 MOL     -0.022467
     58 H22        -5.7250    5.8880    2.4070 hc        1 MOL      0.122884
     59 H23        -6.1330    5.2610    0.7260 hc        1 MOL      0.122884
     60 H24        -5.0800    7.8230    2.3030 hn        1 MOL      0.345002
     61 H25        -4.2740    8.6440    0.9060 hn        1 MOL      0.345002
     62 N7         -2.3040    4.3190    0.6810 n         1 MOL     -0.540188
     63 C20        -0.8650    4.5340    0.5660 c3        1 MOL      0.084366
     64 C21        -0.0850    3.3470    1.2180 c         1 MOL      0.479267
     65 O12        -0.6750    2.5350    1.8790 o         1 MOL     -0.477976
     66 H26        -2.8100    4.2260   -0.1900 hn        1 MOL      0.322701
     67 H27        -0.6030    5.4410    1.1140 h1        1 MOL      0.069675
     68 H28        -0.6090    4.7950   -0.4570 h1        1 MOL      0.069675
     69 N8          1.2400    3.2480    1.0910 n         1 MOL     -0.393603
     70 C22         2.2250    3.8500    0.2210 c3        1 MOL     -0.211558
     71 C23         3.2620    2.7730   -0.2130 c         1 MOL      0.525377
     72 O13         3.8930    2.1790    0.6340 o         1 MOL     -0.509302
     73 C24         2.9790    5.0310    0.9420 c3        1 MOL      0.486319
     74 C25         4.2030    5.5510    0.1490 c3        1 MOL     -0.322929
     75 O14         2.1490    6.1160    1.1630 oh        1 MOL     -0.695072
     76 H29         1.5940    2.3870    1.4860 hn        1 MOL      0.320366
     77 H30         1.7200    4.2610   -0.6550 h1        1 MOL      0.125102
     78 H31         3.2720    4.6960    1.9310 h1        1 MOL     -0.013531
     79 H32         2.5850    6.7070    1.7890 ho        1 MOL      0.416827
     80 H33         4.9520    4.7620    0.0770 hc        1 MOL      0.077455
     81 H34         3.8840    5.7350   -0.8750 hc        1 MOL      0.077455
     82 H35         4.5580    6.4450    0.6560 hc        1 MOL      0.077455
     83 N9          3.5080    2.5850   -1.4850 n         1 MOL     -0.448914
     84 C26         4.4400    1.6280   -2.0350 c3        1 MOL     -0.005093
     85 C27         5.3030    2.2810   -3.0920 c         1 MOL      0.593062
     86 O15         4.8000    2.7430   -4.1100 o         1 MOL     -0.621871
     87 C28         3.6350    0.3960   -2.7050 c3        1 MOL      0.058054
     88 C29         2.7370   -0.2130   -1.5560 c3        1 MOL     -0.126364
     89 C30         4.6470   -0.6350   -3.1500 c3        1 MOL     -0.033792
     90 C31         1.8850   -1.4420   -1.9990 c3        1 MOL     -0.467885
     91 H36         2.8680    2.9960   -2.1580 hn        1 MOL      0.254668
     92 H37         5.0710    1.2840   -1.2120 h1        1 MOL      0.090640
     93 H38         3.1060    0.7900   -3.5820 hc        1 MOL      0.006412
     94 H39         2.0770    0.5430   -1.1100 hc        1 MOL      0.104952
     95 H40         3.3530   -0.5320   -0.7250 hc        1 MOL      0.104952
     96 H41         5.4670   -0.2210   -3.7400 hc        1 MOL      0.013683
     97 H42         5.0340   -1.0950   -2.2460 hc        1 MOL      0.013683
     98 H43         4.1980   -1.4300   -3.7530 hc        1 MOL      0.013683
     99 H44         2.5320   -2.1970   -2.4570 hc        1 MOL      0.131702
    100 H45         1.4370   -1.8650   -1.1040 hc        1 MOL      0.131702
    101 H46         1.2750   -1.1260   -2.8450 hc        1 MOL      0.131702
    102 N10         6.5780    2.4940   -2.9400 n         1 MOL     -0.449891
    103 C32         7.4360    2.4230   -1.7650 c3        1 MOL      0.291020
    104 C33         8.1830    1.0780   -1.6380 c         1 MOL      0.420614
    105 O16         8.0100    0.1640   -2.4590 o         1 MOL     -0.504515
    106 C34         8.3270    3.5950   -1.7400 c3        1 MOL     -0.275517
    107 C35         9.3130    3.7080   -2.8660 c         1 MOL      0.728614
    108 O17        10.1020    4.6890   -2.9080 o         1 MOL     -0.714465
    109 O18         9.3460    2.7960   -3.7470 o         1 MOL     -0.714465
    110 H47         7.0600    2.7720   -3.7880 hn        1 MOL      0.300046
    111 H48         6.7770    2.5080   -0.9030 h1        1 MOL      0.013224
    112 H49         8.8840    3.4610   -0.8140 hc        1 MOL      0.022858
    113 H50         7.7530    4.5220   -1.6500 hc        1 MOL      0.022858
    114 N11         8.9930    0.9880   -0.5820 n         1 MOL     -0.474968
    115 C36         9.6020   -0.2720   -0.1420 c3        1 MOL      0.369585
    116 C37         9.8100   -0.3340    1.3980 c         1 MOL      0.299666
    117 O19        10.1070    0.7100    1.9950 o         1 MOL     -0.523758
    118 C38        10.8820   -0.4900   -0.9980 c3        1 MOL     -0.343042
    119 C39        11.3060   -1.9570   -1.1200 ca        1 MOL      0.072492
    120 C40        12.4400   -2.3710   -0.3650 ca        1 MOL     -0.113090
    121 C41        10.7300   -2.9110   -1.9960 ca        1 MOL     -0.113090
    122 C42        12.9320   -3.6630   -0.4190 ca        1 MOL     -0.110827
    123 C43        11.1900   -4.2510   -2.0110 ca        1 MOL     -0.110827
    124 C44        12.3240   -4.6340   -1.2290 ca        1 MOL     -0.179675
    125 H51         8.8240    1.6030    0.2100 hn        1 MOL      0.285747
    126 H52         8.9740   -1.0740   -0.5460 h1        1 MOL      0.040809
    127 H53        11.6860    0.1890   -0.7320 hc        1 MOL      0.132817
    128 H54        10.6620   -0.2590   -2.0390 hc        1 MOL      0.132817
    129 H55        12.9890   -1.7300    0.3140 ha        1 MOL      0.103354
    130 H56         9.8840   -2.6160   -2.6020 ha        1 MOL      0.103354
    131 H57        13.8000   -3.9660    0.1530 ha        1 MOL      0.096292
    132 H58        10.6520   -4.9460   -2.6310 ha        1 MOL      0.096292
    133 H59        12.6170   -5.6750   -1.2720 ha        1 MOL      0.111773
    134 N12         9.4750   -1.4300    2.0960 n         1 MOL      0.056429
    135 C45         8.9740   -2.7370    1.6120 c3        1 MOL     -0.222768
    136 C46         7.4790   -2.5940    1.2730 c         1 MOL      0.643990
    137 O20         7.0790   -1.5700    0.7020 o         1 MOL     -0.589918
    138 C47         9.3560   -3.8030    2.6460 c3        1 MOL     -0.124437
    139 C48         9.4000   -3.0230    3.9760 c3        1 MOL      0.109338
    140 C49         9.5360   -1.5690    3.5500 c3        1 MOL     -0.124813
    141 H60         9.4550   -3.0440    0.6880 h1        1 MOL      0.083815
    142 H61         8.6480   -4.6220    2.7830 hc        1 MOL      0.044569
    143 H62        10.3230   -4.2430    2.4020 hc        1 MOL      0.044569
    144 H63         8.4190   -3.0750    4.4590 hc        1 MOL     -0.006761
    145 H64        10.2420   -3.3690    4.5640 hc        1 MOL     -0.006761
    146 H65         8.6600   -1.0330    3.8980 h1        1 MOL      0.068259
    147 H66        10.4970   -1.1770    3.8810 h1        1 MOL      0.068259
    148 N13         6.5910   -3.5460    1.5660 n         1 MOL     -0.396106
    149 C50         5.1300   -3.4440    1.2290 c3        1 MOL      0.016203
    150 C51         4.6280   -4.7750    0.6600 c         1 MOL      0.498824
    151 O21         3.4800   -5.1880    0.8560 o         1 MOL     -0.553379
    152 C52         4.2810   -3.0130    2.4710 c3        1 MOL     -0.088803
    153 C53         4.9250   -1.8950    3.3790 c3        1 MOL     -0.309247
    154 C54         3.9210   -1.6980    4.4810 c         1 MOL      0.682314
    155 O22         4.1220   -2.2640    5.5930 o         1 MOL     -0.689275
    156 O23         2.8830   -1.0130    4.2020 o         1 MOL     -0.689275
    157 H67         6.9100   -4.3800    2.0250 hn        1 MOL      0.274038
    158 H68         4.9010   -2.7410    0.4180 h1        1 MOL      0.173976
    159 H69         4.1390   -3.8470    3.1600 hc        1 MOL      0.083168
    160 H70         3.2700   -2.7540    2.1560 hc        1 MOL      0.083168
    161 H71         5.0150   -0.9930    2.7760 hc        1 MOL      0.089358
    162 H72         5.8710   -2.1020    3.8850 hc        1 MOL      0.089358
    163 N14         5.2680   -5.5550   -0.2660 n         1 MOL     -0.544071
    164 C55         6.3470   -5.2190   -1.2470 c3        1 MOL      0.053159
    165 H73         5.8960   -4.9270   -2.1960 h1        1 MOL      0.034979
    166 H74         6.9450   -4.3940   -0.8610 h1        1 MOL      0.034979
    167 H75         6.9840   -6.0900   -1.4010 h1        1 MOL      0.034979
    168 H76         4.6860   -6.3560   -0.4480 hn        1 MOL      0.321340
    169 Ca1        -7.6210    1.0510   -1.0510 Ca        1 MOL      1.762992
    170 O24        -6.1810    3.2870   -1.7610 oh        1 MOL     -0.829159
    171 H77        -6.6480    3.9460   -2.2710 ho        1 MOL      0.402363
    172 H78        -5.2890    3.6050   -1.7000 ho        1 MOL      0.402363
    173 O25        -5.2970    0.6010   -2.3200 oh        1 MOL     -0.829159
    174 H79        -4.3600    0.5790   -2.1290 ho        1 MOL      0.402363
    175 H80        -5.3520    0.8160   -3.2510 ho        1 MOL      0.402363
    176 O26        -8.6910    2.0920   -3.2980 oh        1 MOL     -0.829159
    177 H81        -8.2290    2.2380   -4.1250 ho        1 MOL      0.402363
    178 H82        -9.6150    2.1650   -3.5240 ho        1 MOL      0.402363
    179 O27        -9.1470    3.1090   -0.5650 oh        1 MOL     -0.829159
    180 H83       -10.0260    3.1390   -0.9350 ho        1 MOL      0.402363
    181 H84        -9.1910    3.7080    0.1940 ho        1 MOL      0.402363
@<TRIPOS>BOND
     1    1    2 1   
     2    1    4 1   
     3    1    5 1   
     4    1    6 1   
     5    2    3 2   
     6    2    7 1   
     7    7    8 1   
     8    7   15 1   
     9    8    9 1   
    10    8   11 1   
    11    8   16 1   
    12    9   10 2   
    13    9   19 1   
    14   11   12 1   
    15   11   17 1   
    16   11   18 1   
    17   12   13 1   
    18   12   14 1   
    19   19   20 1   
    20   19   24 1   
    21   20   21 1   
    22   20   23 1   
    23   20   25 1   
    24   21   22 2   
    25   21   29 1   
    26   23   26 1   
    27   23   27 1   
    28   23   28 1   
    29   29   30 1   
    30   29   37 1   
    31   30   31 1   
    32   30   33 1   
    33   30   38 1   
    34   31   32 2   
    35   31   41 1   
    36   33   34 1   
    37   33   39 1   
    38   33   40 1   
    39   34   35 1   
    40   34   36 1   
    41   41   42 1   
    42   41   45 1   
    43   42   43 1   
    44   42   46 1   
    45   42   47 1   
    46   43   44 2   
    47   43   48 1   
    48   48   49 1   
    49   48   56 1   
    50   49   50 1   
    51   49   52 1   
    52   49   57 1   
    53   50   51 2   
    54   50   62 1   
    55   52   53 1   
    56   52   58 1   
    57   52   59 1   
    58   53   54 1   
    59   53   55 2   
    60   54   60 1   
    61   54   61 1   
    62   62   63 1   
    63   62   66 1   
    64   63   64 1   
    65   63   67 1   
    66   63   68 1   
    67   64   65 2   
    68   64   69 1   
    69   69   70 1   
    70   69   76 1   
    71   70   71 1   
    72   70   73 1   
    73   70   77 1   
    74   71   72 2   
    75   71   83 1   
    76   73   74 1   
    77   73   75 1   
    78   73   78 1   
    79   74   80 1   
    80   74   81 1   
    81   74   82 1   
    82   75   79 1   
    83   83   84 1   
    84   83   91 1   
    85   84   85 1   
    86   84   87 1   
    87   84   92 1   
    88   85   86 2   
    89   85  102 1   
    90   87   88 1   
    91   87   89 1   
    92   87   93 1   
    93   88   90 1   
    94   88   94 1   
    95   88   95 1   
    96   89   96 1   
    97   89   97 1   
    98   89   98 1   
    99   90   99 1   
   100   90  100 1   
   101   90  101 1   
   102  102  103 1   
   103  102  110 1   
   104  103  104 1   
   105  103  106 1   
   106  103  111 1   
   107  104  105 2   
   108  104  114 1   
   109  106  107 1   
   110  106  112 1   
   111  106  113 1   
   112  107  108 1   
   113  107  109 1   
   114  114  115 1   
   115  114  125 1   
   116  115  116 1   
   117  115  118 1   
   118  115  126 1   
   119  116  117 2   
   120  116  134 1   
   121  118  119 1   
   122  118  127 1   
   123  118  128 1   
   124  119  120 ar  
   125  119  121 ar  
   126  120  122 ar  
   127  120  129 1   
   128  121  123 ar  
   129  121  130 1   
   130  122  124 ar  
   131  122  131 1   
   132  123  124 ar  
   133  123  132 1   
   134  124  133 1   
   135  134  135 1   
   136  134  140 1   
   137  135  136 1   
   138  135  138 1   
   139  135  141 1   
   140  136  137 2   
   141  136  148 1   
   142  138  139 1   
   143  138  142 1   
   144  138  143 1   
   145  139  140 1   
   146  139  144 1   
   147  139  145 1   
   148  140  146 1   
   149  140  147 1   
   150  148  149 1   
   151  148  157 1   
   152  149  150 1   
   153  149  152 1   
   154  149  158 1   
   155  150  151 2   
   156  150  163 1   
   157  152  153 1   
   158  152  159 1   
   159  152  160 1   
   160  153  154 1   
   161  153  161 1   
   162  153  162 1   
   163  154  155 1   
   164  154  156 1   
   165  163  164 1   
   166  163  168 1   
   167  164  165 1   
   168  164  166 1   
   169  164  167 1   
   170  170  171 1   
   171  170  172 1   
   172  173  174 1   
   173  173  175 1   
   174  176  177 1   
   175  176  178 1   
   176  179  180 1   
   177  179  181 1   
@<TRIPOS>SUBSTRUCTURE
     1 MOL         1 TEMP              0 ****  ****    0 ROOT
