@<TRIPOS>MOLECULE
MOL
  175   173     1     0     0
SMALL
resp


@<TRIPOS>ATOM
      1 C1         -6.8310    8.0130    1.9340 c3        1 MOL     -0.327500
      2 C2         -7.4400    7.2590    0.7760 c         1 MOL      0.578365
      3 O1         -7.4280    7.7480   -0.4110 o         1 MOL     -0.581021
      4 H1         -7.6260    8.4150    2.5620 hc        1 MOL      0.076886
      5 H2         -6.2110    7.3370    2.5230 hc        1 MOL      0.076886
      6 H3         -6.2200    8.8310    1.5550 hc        1 MOL      0.076886
      7 N1         -8.1220    6.2010    1.0990 n         1 MOL     -0.284332
      8 C3         -8.9590    5.3800    0.1990 c3        1 MOL     -0.088516
      9 C4         -8.1340    4.4410   -0.5920 c         1 MOL      0.669630
     10 O2         -8.5270    4.0890   -1.7030 o         1 MOL     -0.549823
     11 C5        -10.0510    4.6440    0.9010 c3        1 MOL     -0.136554
     12 C6        -11.1800    4.4180   -0.0650 c         1 MOL      0.694262
     13 O3        -11.4990    3.2190   -0.2290 o         1 MOL     -0.720680
     14 O4        -11.7780    5.3990   -0.5280 o         1 MOL     -0.720680
     15 H4         -8.1630    6.0480    2.0970 hn        1 MOL      0.223395
     16 H5         -9.3340    6.1440   -0.4840 h1        1 MOL      0.110650
     17 H6        -10.3620    5.2390    1.7580 hc        1 MOL      0.012785
     18 H7         -9.7570    3.7040    1.3740 hc        1 MOL      0.012785
     19 N2         -6.9320    4.0170   -0.1540 n         1 MOL     -0.631980
     20 C7         -6.0530    3.0810   -0.7710 c3        1 MOL      0.409895
     21 C8         -5.3240    2.2440    0.3240 c         1 MOL      0.497543
     22 O5         -4.7850    2.8320    1.2460 o         1 MOL     -0.539572
     23 C9         -4.9920    3.8650   -1.5610 c3        1 MOL     -0.244608
     24 H8         -6.6280    4.4720    0.6930 hn        1 MOL      0.225153
     25 H9         -6.5830    2.4050   -1.4370 h1        1 MOL      0.018970
     26 H10        -4.3370    3.1500   -2.0760 hc        1 MOL      0.066249
     27 H11        -5.5680    4.4290   -2.3010 hc        1 MOL      0.066249
     28 H12        -4.3690    4.4910   -0.9410 hc        1 MOL      0.066249
     29 N3         -5.1480    0.9350    0.2360 n         1 MOL     -0.437852
     30 C10        -5.6340    0.0390   -0.8290 c3        1 MOL     -0.180926
     31 C11        -5.8270   -1.3950   -0.3150 c         1 MOL      0.712558
     32 O6         -5.1950   -1.9230    0.5700 o         1 MOL     -0.563985
     33 C12        -4.7130    0.0810   -2.0630 c3        1 MOL      0.067095
     34 C13        -3.2660   -0.2710   -1.7260 c         1 MOL      0.582824
     35 O7         -2.7700   -1.2170   -2.3290 o         1 MOL     -0.670707
     36 O8         -2.6110    0.4390   -0.9540 o         1 MOL     -0.670707
     37 H13        -4.6000    0.5330    0.9890 hn        1 MOL      0.274106
     38 H14        -6.6080    0.3460   -1.1920 h1        1 MOL      0.060942
     39 H15        -4.8430    1.1000   -2.4390 hc        1 MOL     -0.024315
     40 H16        -5.0670   -0.6090   -2.8250 hc        1 MOL     -0.024315
     41 N4         -6.6350   -2.0630   -1.1390 n         1 MOL     -0.483511
     42 C14        -7.1360   -3.4230   -0.7930 c3        1 MOL     -0.012223
     43 C15        -6.9290   -4.4420   -1.9750 c         1 MOL      0.432861
     44 O9         -7.9360   -4.9710   -2.5870 o         1 MOL     -0.545149
     45 H17        -6.8670   -1.7490   -2.0670 hn        1 MOL      0.344326
     46 H18        -8.1620   -3.2220   -0.4840 h1        1 MOL      0.076571
     47 H19        -6.7000   -3.7530    0.1480 h1        1 MOL      0.076571
     48 N5         -5.6950   -4.8000   -2.2830 n         1 MOL     -0.328576
     49 C16        -4.4300   -4.5150   -1.6150 c3        1 MOL     -0.090109
     50 C17        -4.1930   -5.3340   -0.3150 c         1 MOL      0.588600
     51 O10        -4.2130   -6.5700   -0.3670 o         1 MOL     -0.544136
     52 C18        -3.1970   -4.7370   -2.6110 c3        1 MOL      0.018317
     53 C19        -1.8380   -4.2680   -2.0210 c         1 MOL      0.461394
     54 N6         -0.7590   -4.6460   -2.6820 n         1 MOL     -0.618057
     55 O11        -1.7290   -3.5650   -1.0140 o         1 MOL     -0.486446
     56 H20        -5.5810   -5.4110   -3.0830 hn        1 MOL      0.279802
     57 H21        -4.3700   -3.4390   -1.4500 h1        1 MOL      0.055796
     58 H22        -3.4420   -4.2960   -3.5700 hc        1 MOL      0.020398
     59 H23        -3.0770   -5.7960   -2.8360 hc        1 MOL      0.020398
     60 H24        -0.8930   -5.2290   -3.4860 hn        1 MOL      0.323303
     61 H25         0.0900   -4.3620   -2.2150 hn        1 MOL      0.323303
     62 N7         -4.0590   -4.6660    0.8830 n         1 MOL     -0.408486
     63 C20        -3.7410   -5.2760    2.1690 c3        1 MOL     -0.059575
     64 C21        -2.2740   -5.3290    2.6610 c         1 MOL      0.474493
     65 O12        -2.0010   -5.9700    3.6770 o         1 MOL     -0.579382
     66 H26        -4.2730   -3.6880    0.7860 hn        1 MOL      0.325229
     67 H27        -4.0090   -6.3300    2.1370 h1        1 MOL      0.077322
     68 H28        -4.4100   -4.8230    2.9130 h1        1 MOL      0.077322
     69 N8         -1.3440   -4.6650    1.9610 n         1 MOL     -0.027724
     70 C22         0.1200   -4.7930    2.2800 c3        1 MOL     -0.346523
     71 C23         0.9300   -3.4740    2.1280 c         1 MOL      0.549760
     72 O13         0.5360   -2.5470    1.4980 o         1 MOL     -0.519757
     73 C24         0.9080   -5.8370    1.4770 c3        1 MOL      0.300671
     74 C25         0.5620   -7.2490    1.7850 c3        1 MOL     -0.375114
     75 O14         0.5250   -5.7160    0.1040 oh        1 MOL     -0.640352
     76 H29        -1.6570   -4.0640    1.2180 hn        1 MOL      0.177765
     77 H30         0.2600   -5.1240    3.3200 h1        1 MOL      0.119417
     78 H31         1.9810   -5.6620    1.4770 h1        1 MOL      0.062435
     79 H32         1.2130   -5.1630   -0.2840 ho        1 MOL      0.410082
     80 H33         0.9450   -7.7290    2.6820 hc        1 MOL      0.100615
     81 H34        -0.5190   -7.3830    1.7510 hc        1 MOL      0.100615
     82 H35         0.9450   -7.9950    1.0830 hc        1 MOL      0.100615
     83 N9          2.0810   -3.4430    2.7190 n         1 MOL     -0.390688
     84 C26         3.0160   -2.2920    2.5460 c3        1 MOL      0.052246
     85 C27         3.9860   -2.7470    1.5260 c         1 MOL      0.329468
     86 O15         4.5450   -3.8090    1.7640 o         1 MOL     -0.545568
     87 C28         3.6440   -1.9030    3.9040 c3        1 MOL      0.304627
     88 C29         4.7770   -0.8290    3.8140 c3        1 MOL     -0.242749
     89 C30         2.4870   -1.5570    4.9750 c3        1 MOL     -0.491079
     90 C31         4.4310    0.3160    2.8250 c3        1 MOL     -0.087862
     91 H36         2.4430   -4.2130    3.2540 hn        1 MOL      0.275724
     92 H37         2.4570   -1.4640    2.1000 h1        1 MOL      0.060583
     93 H38         4.0380   -2.8090    4.3850 hc        1 MOL     -0.024618
     94 H39         5.7080   -1.3290    3.5450 hc        1 MOL      0.054379
     95 H40         4.9840   -0.4070    4.7940 hc        1 MOL      0.054379
     96 H41         2.1270   -2.5080    5.3550 hc        1 MOL      0.123482
     97 H42         2.8920   -0.9540    5.7910 hc        1 MOL      0.123482
     98 H43         1.6880   -1.0190    4.4540 hc        1 MOL      0.123482
     99 H44         4.1060   -0.0040    1.8320 hc        1 MOL      0.022321
    100 H45         3.5810    0.7680    3.3260 hc        1 MOL      0.022321
    101 H46         5.1370    1.1370    2.7530 hc        1 MOL      0.022321
    102 N10         4.1280   -2.0640    0.3890 n         1 MOL     -0.178997
    103 C32         4.7450   -2.5100   -0.8450 c3        1 MOL      0.021887
    104 C33         5.8450   -1.5990   -1.3280 c         1 MOL      0.476591
    105 O16         6.3910   -1.8920   -2.3910 o         1 MOL     -0.529811
    106 C34         3.6240   -2.6010   -1.9580 c3        1 MOL     -0.230460
    107 C35         2.3570   -3.3330   -1.5780 c         1 MOL      0.729694
    108 O17         2.4090   -4.4560   -1.1300 o         1 MOL     -0.655214
    109 O18         1.2850   -2.7420   -1.7820 o         1 MOL     -0.655214
    110 H47         3.4740   -1.3120    0.2650 hn        1 MOL      0.230901
    111 H48         5.1340   -3.5280   -0.7170 h1        1 MOL      0.099355
    112 H49         4.0100   -3.1050   -2.8450 hc        1 MOL      0.052648
    113 H50         3.3030   -1.5870   -2.2030 hc        1 MOL      0.052648
    114 N11         6.0420   -0.4590   -0.6210 n         1 MOL     -0.374013
    115 C36         6.9580    0.5320   -1.1150 c3        1 MOL      0.205580
    116 C37         6.6410    1.8750   -0.4400 c         1 MOL      0.334221
    117 O19         6.1890    1.9170    0.7220 o         1 MOL     -0.506708
    118 C38         8.4590    0.1350   -0.7630 c3        1 MOL     -0.338986
    119 C39         9.6910    0.8720   -1.3250 ca        1 MOL      0.184657
    120 C40        10.4540    1.6320   -0.4480 ca        1 MOL     -0.171341
    121 C41         9.9990    0.9530   -2.6940 ca        1 MOL     -0.171341
    122 C42        11.5090    2.4490   -0.9250 ca        1 MOL     -0.102776
    123 C43        11.0960    1.6400   -3.1640 ca        1 MOL     -0.102776
    124 C44        11.8530    2.3690   -2.2670 ca        1 MOL     -0.126455
    125 H51         5.5150   -0.1570    0.1840 hn        1 MOL      0.210605
    126 H52         6.8320    0.5970   -2.1990 h1        1 MOL      0.049154
    127 H53         8.4900   -0.9150   -1.0590 hc        1 MOL      0.112363
    128 H54         8.5540    0.2050    0.3200 hc        1 MOL      0.112363
    129 H55        10.1770    1.6560    0.5960 ha        1 MOL      0.118969
    130 H56         9.4400    0.4180   -3.4480 ha        1 MOL      0.118969
    131 H57        12.1660    2.9270   -0.2210 ha        1 MOL      0.105947
    132 H58        11.2380    1.6760   -4.2310 ha        1 MOL      0.105947
    133 H59        12.7800    2.7820   -2.6310 ha        1 MOL      0.098470
    134 N12         6.8750    2.9740   -1.1510 n         1 MOL      0.077947
    135 C45         6.9180    4.3040   -0.5710 c3        1 MOL     -0.108968
    136 C46         5.6620    4.8010    0.1030 c         1 MOL      0.591415
    137 O20         5.6270    5.8350    0.7480 o         1 MOL     -0.581008
    138 C47         7.4980    5.2390   -1.6230 c3        1 MOL     -0.258441
    139 C48         6.9450    4.6340   -2.8680 c3        1 MOL      0.148186
    140 C49         7.0830    3.1140   -2.5900 c3        1 MOL     -0.522870
    141 H60         7.6340    4.4020    0.2400 h1        1 MOL      0.071967
    142 H61         7.0570    6.2330   -1.6350 hc        1 MOL      0.119890
    143 H62         8.5710    5.1560   -1.7590 hc        1 MOL      0.119890
    144 H63         5.9060    4.9180   -2.9790 hc        1 MOL      0.014381
    145 H64         7.5610    4.9330   -3.7210 hc        1 MOL      0.014381
    146 H65         6.3770    2.4980   -3.1320 h1        1 MOL      0.178596
    147 H66         8.0790    2.7620   -2.8430 h1        1 MOL      0.178596
    148 N13         4.5330    4.0590    0.0660 n         1 MOL     -0.270223
    149 C50         3.2690    4.4710    0.6880 c3        1 MOL     -0.148949
    150 C51         3.2600    4.5810    2.2240 c         1 MOL      0.447824
    151 O21         2.2120    4.9710    2.7540 o         1 MOL     -0.530048
    152 C52         2.1640    3.4580    0.3070 c3        1 MOL     -0.229126
    153 C53         2.3790    2.0910    0.8600 c3        1 MOL      0.007715
    154 C54         1.4510    1.0340    0.3020 c         1 MOL      0.555610
    155 O22         1.9300   -0.0360   -0.1920 o         1 MOL     -0.715983
    156 O23         0.2000    1.1510    0.4940 o         1 MOL     -0.715983
    157 H67         4.5910    3.2980   -0.5920 hn        1 MOL      0.200603
    158 H68         3.0230    5.4020    0.1830 h1        1 MOL      0.127417
    159 H69         2.0990    3.3890   -0.7780 hc        1 MOL      0.110099
    160 H70         1.2280    3.8880    0.6670 hc        1 MOL      0.110099
    161 H71         2.2050    2.0470    1.9390 hc        1 MOL      0.076762
    162 H72         3.3800    1.7370    0.6160 hc        1 MOL      0.076762
    163 N14         4.2530    4.1120    2.9150 n         1 MOL     -0.134936
    164 C55         4.4970    4.4470    4.3360 c3        1 MOL     -0.058534
    165 H73         3.5790    4.8290    4.7820 h1        1 MOL      0.054208
    166 H74         4.8160    3.5520    4.8710 h1        1 MOL      0.054208
    167 H75         5.2760    5.2070    4.4020 h1        1 MOL      0.054208
    168 H76         5.0450    3.8460    2.3550 hn        1 MOL      0.201215
    169 Ca1        -0.4600   -1.1670   -0.6740 Ca        1 MOL      1.694245
    170 O24         0.3840   -0.3360   -2.9500 oh        1 MOL     -0.905608
    171 H77         0.0940   -0.4260   -3.8580 ho        1 MOL      0.430445
    172 H78         0.9360    0.4450   -2.9540 ho        1 MOL      0.430445
    173 O25        -2.4130   -1.8830    1.2890 oh        1 MOL     -0.905608
    174 H79        -2.2480   -1.0550    1.7340 ho        1 MOL      0.430445
    175 H80        -3.2490   -1.7560    0.8430 ho        1 MOL      0.430445
@<TRIPOS>BOND
     1    1    2 1   
     2    1    4 1   
     3    1    5 1   
     4    1    6 1   
     5    2    3 2   
     6    2    7 1   
     7    7    8 1   
     8    7   15 1   
     9    8    9 1   
    10    8   11 1   
    11    8   16 1   
    12    9   10 2   
    13    9   19 1   
    14   11   12 1   
    15   11   17 1   
    16   11   18 1   
    17   12   13 1   
    18   12   14 1   
    19   19   20 1   
    20   19   24 1   
    21   20   21 1   
    22   20   23 1   
    23   20   25 1   
    24   21   22 2   
    25   21   29 1   
    26   23   26 1   
    27   23   27 1   
    28   23   28 1   
    29   29   30 1   
    30   29   37 1   
    31   30   31 1   
    32   30   33 1   
    33   30   38 1   
    34   31   32 2   
    35   31   41 1   
    36   33   34 1   
    37   33   39 1   
    38   33   40 1   
    39   34   35 1   
    40   34   36 1   
    41   41   42 1   
    42   41   45 1   
    43   42   43 1   
    44   42   46 1   
    45   42   47 1   
    46   43   44 2   
    47   43   48 1   
    48   48   49 1   
    49   48   56 1   
    50   49   50 1   
    51   49   52 1   
    52   49   57 1   
    53   50   51 2   
    54   50   62 1   
    55   52   53 1   
    56   52   58 1   
    57   52   59 1   
    58   53   54 1   
    59   53   55 2   
    60   54   60 1   
    61   54   61 1   
    62   62   63 1   
    63   62   66 1   
    64   63   64 1   
    65   63   67 1   
    66   63   68 1   
    67   64   65 2   
    68   64   69 1   
    69   69   70 1   
    70   69   76 1   
    71   70   71 1   
    72   70   73 1   
    73   70   77 1   
    74   71   72 2   
    75   71   83 1   
    76   73   74 1   
    77   73   75 1   
    78   73   78 1   
    79   74   80 1   
    80   74   81 1   
    81   74   82 1   
    82   75   79 1   
    83   83   84 1   
    84   83   91 1   
    85   84   85 1   
    86   84   87 1   
    87   84   92 1   
    88   85   86 2   
    89   85  102 1   
    90   87   88 1   
    91   87   89 1   
    92   87   93 1   
    93   88   90 1   
    94   88   94 1   
    95   88   95 1   
    96   89   96 1   
    97   89   97 1   
    98   89   98 1   
    99   90   99 1   
   100   90  100 1   
   101   90  101 1   
   102  102  103 1   
   103  102  110 1   
   104  103  104 1   
   105  103  106 1   
   106  103  111 1   
   107  104  105 2   
   108  104  114 1   
   109  106  107 1   
   110  106  112 1   
   111  106  113 1   
   112  107  108 1   
   113  107  109 1   
   114  114  115 1   
   115  114  125 1   
   116  115  116 1   
   117  115  118 1   
   118  115  126 1   
   119  116  117 2   
   120  116  134 1   
   121  118  119 1   
   122  118  127 1   
   123  118  128 1   
   124  119  120 ar  
   125  119  121 ar  
   126  120  122 ar  
   127  120  129 1   
   128  121  123 ar  
   129  121  130 1   
   130  122  124 ar  
   131  122  131 1   
   132  123  124 ar  
   133  123  132 1   
   134  124  133 1   
   135  134  135 1   
   136  134  140 1   
   137  135  136 1   
   138  135  138 1   
   139  135  141 1   
   140  136  137 2   
   141  136  148 1   
   142  138  139 1   
   143  138  142 1   
   144  138  143 1   
   145  139  140 1   
   146  139  144 1   
   147  139  145 1   
   148  140  146 1   
   149  140  147 1   
   150  148  149 1   
   151  148  157 1   
   152  149  150 1   
   153  149  152 1   
   154  149  158 1   
   155  150  151 2   
   156  150  163 1   
   157  152  153 1   
   158  152  159 1   
   159  152  160 1   
   160  153  154 1   
   161  153  161 1   
   162  153  162 1   
   163  154  155 1   
   164  154  156 1   
   165  163  164 1   
   166  163  168 1   
   167  164  165 1   
   168  164  166 1   
   169  164  167 1   
   170  170  171 1   
   171  170  172 1   
   172  173  174 1   
   173  173  175 1   
@<TRIPOS>SUBSTRUCTURE
     1 MOL         1 TEMP              0 ****  ****    0 ROOT
