@<TRIPOS>MOLECULE
MOL
  182   178     1     0     0
SMALL
resp


@<TRIPOS>ATOM
      1 C1          5.7590    0.0340   -3.7260 c3        1 MOL     -0.585238
      2 C2          6.3500   -0.2020   -2.3200 c         1 MOL      0.599600
      3 O1          5.6900   -0.1900   -1.3270 o         1 MOL     -0.494768
      4 H1          5.2440   -0.8670   -4.0590 hc        1 MOL      0.165051
      5 H2          5.0530    0.8640   -3.6890 hc        1 MOL      0.165051
      6 H3          6.5620    0.2710   -4.4240 hc        1 MOL      0.165051
      7 N1          7.7050   -0.4170   -2.2750 n         1 MOL     -0.501544
      8 C3          8.4690   -0.7900   -1.0010 c3        1 MOL      0.201921
      9 C4          8.2460    0.1880    0.1680 c         1 MOL      0.386146
     10 O2          8.4470   -0.1820    1.2680 o         1 MOL     -0.474739
     11 C5          8.1960   -2.2570   -0.6530 c3        1 MOL     -0.150336
     12 C6          8.0970   -3.2250   -1.8300 c         1 MOL      0.732932
     13 O3          7.4960   -4.3370   -1.7210 o         1 MOL     -0.685715
     14 O4          8.6740   -2.9270   -2.9070 o         1 MOL     -0.685715
     15 H4          8.2370   -0.3660   -3.1410 hn        1 MOL      0.277077
     16 H5          9.5180   -0.8580   -1.2900 h1        1 MOL      0.018276
     17 H6          7.2380   -2.3970   -0.1580 hc        1 MOL      0.038242
     18 H7          8.9720   -2.6110    0.0260 hc        1 MOL      0.038242
     19 N2          7.8280    1.3940   -0.1360 n         1 MOL     -0.481286
     20 C7          7.5990    2.4950    0.7800 c3        1 MOL      0.255500
     21 C8          6.0920    2.7940    1.1950 c         1 MOL      0.507326
     22 O5          5.7030    3.5950    2.0580 o         1 MOL     -0.557811
     23 C9          8.3110    3.7260    0.1950 c3        1 MOL     -0.184489
     24 C10         9.7190    3.4150   -0.3160 c3        1 MOL      0.033701
     25 C11        10.1560    4.7310   -1.0260 c3        1 MOL      0.028542
     26 C12        11.5560    4.4810   -1.6250 c3        1 MOL     -0.240324
     27 N3         11.5240    3.8680   -3.0350 n4        1 MOL     -0.291768
     28 H8          7.7020    1.5230   -1.1240 hn        1 MOL      0.215765
     29 H9          8.1080    2.1900    1.6930 h1        1 MOL      0.055503
     30 H10         8.3290    4.3920    1.0630 hc        1 MOL      0.051251
     31 H11         7.6630    4.0930   -0.5970 hc        1 MOL      0.051251
     32 H12         9.7420    2.6500   -1.0860 hc        1 MOL      0.035187
     33 H13        10.4090    3.3160    0.5170 hc        1 MOL      0.035187
     34 H14        10.1790    5.5780   -0.3420 hc        1 MOL      0.044804
     35 H15         9.5560    5.0280   -1.8900 hc        1 MOL      0.044804
     36 H16        12.2100    3.9290   -0.9590 hx        1 MOL      0.170679
     37 H17        11.9120    5.4930   -1.8110 hx        1 MOL      0.170679
     38 H18        12.3940    3.9840   -3.5420 hn        1 MOL      0.299122
     39 H19        11.2510    2.8950   -3.0200 hn        1 MOL      0.299122
     40 H20        10.9890    4.3940   -3.7160 hn        1 MOL      0.299122
     41 N4          5.2560    1.8690    0.6730 n         1 MOL     -0.449800
     42 C13         3.7770    1.9070    0.9510 c3        1 MOL     -0.193676
     43 C14         3.4360    1.6960    2.4320 c         1 MOL      0.658379
     44 O6          3.9040    0.7900    3.1180 o         1 MOL     -0.486791
     45 C15         3.0420    0.9070    0.0460 c3        1 MOL     -0.160500
     46 C16         1.5530    0.8220    0.2820 c         1 MOL      0.561389
     47 O7          0.7780    1.1890   -0.6350 o         1 MOL     -0.744739
     48 O8          0.9430    0.3700    1.2780 o         1 MOL     -0.744739
     49 H21         5.6160    1.0340    0.2200 hn        1 MOL      0.347481
     50 H22         3.4680    2.9140    0.6430 h1        1 MOL      0.120881
     51 H23         3.3300   -0.1360    0.1660 hc        1 MOL      0.141625
     52 H24         3.2080    1.0570   -1.0180 hc        1 MOL      0.141625
     53 N5          2.5080    2.5250    2.9710 n         1 MOL     -0.214037
     54 C17         2.1880    2.5650    4.3840 c3        1 MOL     -0.207812
     55 C18         1.6000    1.3110    5.0890 c         1 MOL      0.565799
     56 O9          2.0090    1.1040    6.2300 o         1 MOL     -0.543018
     57 H25         2.0990    3.2710    2.4340 hn        1 MOL      0.217700
     58 H26         1.4640    3.3560    4.5660 h1        1 MOL      0.101831
     59 H27         3.0970    2.8260    4.9300 h1        1 MOL      0.101831
     60 N6          0.7930    0.4930    4.4160 n         1 MOL     -0.438966
     61 C19         0.5310   -0.8980    4.7420 c3        1 MOL      0.165402
     62 C20         1.2070   -1.9900    3.7520 c         1 MOL      0.359624
     63 O10         0.9120   -3.2060    3.9490 o         1 MOL     -0.514039
     64 C21        -1.0000   -1.0880    4.8880 c3        1 MOL     -0.290391
     65 C22        -1.6650   -1.2570    3.5480 c         1 MOL      0.461864
     66 N7         -2.3140   -2.3980    3.3250 n         1 MOL     -0.666900
     67 O11        -1.6260   -0.4000    2.6770 o         1 MOL     -0.453841
     68 H28         0.6410    0.8180    3.4730 hn        1 MOL      0.236598
     69 H29         0.9810   -1.0840    5.7170 h1        1 MOL      0.097961
     70 H30        -1.3080   -0.2370    5.4930 hc        1 MOL      0.108345
     71 H31        -1.2290   -1.9520    5.5140 hc        1 MOL      0.108345
     72 H32        -2.3090   -3.1060    4.0500 hn        1 MOL      0.334929
     73 H33        -2.8490   -2.6290    2.4960 hn        1 MOL      0.334929
     74 N8          2.1270   -1.6480    2.8230 n         1 MOL     -0.101836
     75 C23         2.6790   -2.5960    1.8320 c3        1 MOL     -0.201408
     76 C24         1.6810   -3.2700    0.9000 c         1 MOL      0.437560
     77 O12         1.8350   -4.4990    0.7610 o         1 MOL     -0.478578
     78 H34         2.2610   -0.6760    2.5920 hn        1 MOL      0.060141
     79 H35         3.1740   -3.4070    2.3600 h1        1 MOL      0.133921
     80 H36         3.4150   -2.0450    1.2460 h1        1 MOL      0.133921
     81 N9          0.7160   -2.5910    0.2800 n         1 MOL     -0.284835
     82 C25        -0.1980   -3.0430   -0.7080 c3        1 MOL      0.235306
     83 C26        -1.5320   -2.2410   -0.7950 c         1 MOL      0.314797
     84 O13        -1.7360   -1.1690   -0.2090 o         1 MOL     -0.505149
     85 C27         0.5080   -2.9500   -2.0270 c3        1 MOL     -0.102297
     86 C28         1.8230   -3.7580   -2.0080 ca        1 MOL     -0.084922
     87 C29         1.7160   -5.1800   -2.1440 ca        1 MOL     -0.148958
     88 C30         3.0340   -3.1360   -1.8700 ca        1 MOL     -0.148958
     89 C31         2.8920   -5.9700   -2.3040 ca        1 MOL     -0.234372
     90 C32         4.2050   -3.9330   -1.7700 ca        1 MOL     -0.234372
     91 C33         4.1600   -5.3070   -1.9990 ca        1 MOL      0.383721
     92 O14         5.3440   -5.8980   -2.1450 oh        1 MOL     -0.530992
     93 H37         0.5260   -1.6760    0.6450 hn        1 MOL      0.298411
     94 H38        -0.6220   -4.0140   -0.4380 h1        1 MOL      0.007471
     95 H39         0.6590   -1.8940   -2.2520 hc        1 MOL      0.048598
     96 H40        -0.0400   -3.4320   -2.8340 hc        1 MOL      0.048598
     97 H41         0.7870   -5.7270   -2.1770 ha        1 MOL      0.110289
     98 H42         3.1020   -2.0870   -1.6220 ha        1 MOL      0.110289
     99 H43         2.7910   -7.0310   -2.4760 ha        1 MOL      0.140635
    100 H44         5.1420   -3.4590   -1.5720 ha        1 MOL      0.140635
    101 H45         6.0620   -5.3270   -1.8560 ho        1 MOL      0.402306
    102 N10        -2.5150   -2.7020   -1.5270 n         1 MOL     -0.250903
    103 C34        -3.6570   -1.8830   -1.9180 c3        1 MOL     -0.032334
    104 C35        -4.5780   -1.5870   -0.6540 c         1 MOL     -0.065097
    105 O15        -4.9880   -0.4790   -0.3490 o         1 MOL     -0.197857
    106 C36        -4.3840   -2.5430   -3.1210 c3        1 MOL      0.089833
    107 C37        -3.4980   -2.8620   -4.3910 c3        1 MOL     -0.234064
    108 C38        -5.5700   -1.7050   -3.6430 c3        1 MOL     -0.541895
    109 C39        -2.9710   -1.5690   -5.0670 c3        1 MOL     -0.230187
    110 H46        -2.3190   -3.6120   -1.9150 hn        1 MOL      0.233664
    111 H47        -3.2120   -0.9040   -2.0680 h1        1 MOL      0.181368
    112 H48        -4.7830   -3.5010   -2.7970 hc        1 MOL      0.028656
    113 H49        -4.0090   -3.4360   -5.1530 hc        1 MOL      0.106790
    114 H50        -2.5890   -3.3190   -4.0020 hc        1 MOL      0.106790
    115 H51        -5.7780   -2.0150   -4.6610 hc        1 MOL      0.170573
    116 H52        -6.3310   -1.8500   -2.8710 hc        1 MOL      0.170573
    117 H53        -5.1610   -0.7010   -3.7780 hc        1 MOL      0.170573
    118 H54        -2.3660   -0.9550   -4.3940 hc        1 MOL      0.083297
    119 H55        -2.2930   -1.8080   -5.8930 hc        1 MOL      0.083297
    120 H56        -3.7860   -1.0150   -5.5170 hc        1 MOL      0.083297
    121 N11        -4.9340   -2.5790    0.1570 n         1 MOL     -0.013319
    122 C40        -5.7640   -2.5640    1.4110 c3        1 MOL     -0.051945
    123 C41        -7.2390   -2.1530    1.3620 c         1 MOL      0.377171
    124 O16        -7.7940   -1.5250    2.2720 o         1 MOL     -0.443690
    125 C42        -5.6810   -3.9310    2.1790 c3        1 MOL      0.090032
    126 O17        -4.3550   -4.3560    2.2510 oh        1 MOL     -0.567817
    127 H57        -4.4820   -3.4780   -0.0070 hn        1 MOL      0.189620
    128 H58        -5.3250   -1.7760    2.0340 h1        1 MOL      0.069447
    129 H59        -6.1840   -4.6830    1.5750 h1        1 MOL      0.064795
    130 H60        -6.1170   -3.8480    3.1770 h1        1 MOL      0.064795
    131 H61        -4.4500   -5.2280    2.6390 ho        1 MOL      0.413260
    132 N12        -7.7740   -2.4170    0.1900 n         1 MOL     -0.441166
    133 C43        -8.9970   -1.8140   -0.3280 c3        1 MOL      0.377502
    134 C44        -9.0340   -0.2250   -0.1920 c         1 MOL      0.422813
    135 O18       -10.0620    0.3400    0.2360 o         1 MOL     -0.500647
    136 C45       -10.2830   -2.5430    0.1460 c3        1 MOL     -0.408308
    137 H62        -7.1840   -2.9010   -0.4660 hn        1 MOL      0.264115
    138 H63        -9.0540   -1.9840   -1.4020 h1        1 MOL     -0.001674
    139 H64       -10.2590   -3.5720   -0.2290 hc        1 MOL      0.116723
    140 H65       -10.2610   -2.4720    1.2320 hc        1 MOL      0.116723
    141 H66       -11.1300   -1.9710   -0.2350 hc        1 MOL      0.116723
    142 N13        -7.9220    0.4730   -0.3760 n         1 MOL     -0.480855
    143 C46        -7.6920    1.8420    0.0480 c3        1 MOL      0.225157
    144 C47        -6.7260    2.6010   -0.9410 c         1 MOL      0.527761
    145 O19        -6.0090    1.9080   -1.6890 o         1 MOL     -0.523696
    146 C48        -7.0510    1.8330    1.4600 c3        1 MOL     -0.219770
    147 H67        -7.1250   -0.1170   -0.5310 hn        1 MOL      0.143256
    148 H68        -8.6360    2.3740    0.1730 h1        1 MOL      0.026115
    149 H69        -6.3350    1.0200    1.6060 hc        1 MOL      0.068567
    150 H70        -6.7830    2.8440    1.7680 hc        1 MOL      0.068567
    151 H71        -7.7440    1.6160    2.2730 hc        1 MOL      0.068567
    152 N14        -6.5320    3.9300   -0.7640 n         1 MOL     -0.292920
    153 C49        -5.8270    4.8520   -1.6450 c3        1 MOL     -0.098250
    154 C50        -6.3620    4.9570   -3.0360 c         1 MOL      0.457190
    155 O20        -5.7100    5.3990   -3.9870 o         1 MOL     -0.498363
    156 C51        -4.2710    4.7340   -1.5310 c3        1 MOL      0.262030
    157 C52        -3.7460    4.7150   -0.0840 c3        1 MOL      0.092834
    158 C53        -2.1810    4.9050   -0.0580 c         1 MOL      0.539326
    159 O21        -1.6890    6.0630   -0.2750 o         1 MOL     -0.651861
    160 O22        -1.5080    3.9350    0.2460 o         1 MOL     -0.651861
    161 H72        -7.2610    4.2690   -0.1620 hn        1 MOL      0.211668
    162 H73        -6.1130    5.8120   -1.2220 h1        1 MOL      0.114405
    163 H74        -3.8270    5.6300   -1.9800 hc        1 MOL     -0.064880
    164 H75        -3.9080    3.8170   -1.9860 hc        1 MOL     -0.064880
    165 H76        -4.0560    3.7980    0.4080 hc        1 MOL     -0.109137
    166 H77        -4.2700    5.4930    0.4710 hc        1 MOL     -0.109137
    167 N15        -7.5590    4.4550   -3.3130 n         1 MOL     -0.303073
    168 C54        -7.9710    4.0200   -4.6810 c3        1 MOL     -0.209286
    169 H78        -8.0610    4.8920   -5.3280 h1        1 MOL      0.113936
    170 H79        -7.2210    3.3420   -5.0880 h1        1 MOL      0.113936
    171 H80        -8.9330    3.5080   -4.6260 h1        1 MOL      0.113936
    172 H81        -7.9910    4.0270   -2.5120 hn        1 MOL      0.172667
    173 Ca1        -1.5380    1.3830    0.6720 Ca        1 MOL      1.748700
    174 O23        -2.9980    1.5130   -1.4030 oh        1 MOL     -0.896938
    175 H82        -2.8810    1.7390   -2.3230 ho        1 MOL      0.438337
    176 H83        -3.9230    1.2940   -1.3140 ho        1 MOL      0.438337
    177 O24        -1.3520    2.5580    2.9480 oh        1 MOL     -0.896938
    178 H84        -0.9830    3.4340    3.0470 ho        1 MOL      0.438337
    179 H85        -2.0380    2.5120    3.6210 ho        1 MOL      0.438337
    180 O25        -3.9820    0.9060    1.6770 oh        1 MOL     -0.896938
    181 H86        -4.2350    0.5260    2.5120 ho        1 MOL      0.438337
    182 H87        -4.5810    0.5090    1.0460 ho        1 MOL      0.438337
@<TRIPOS>BOND
     1    1    2 1   
     2    1    4 1   
     3    1    5 1   
     4    1    6 1   
     5    2    3 2   
     6    2    7 1   
     7    7    8 1   
     8    7   15 1   
     9    8    9 1   
    10    8   11 1   
    11    8   16 1   
    12    9   10 2   
    13    9   19 1   
    14   11   12 1   
    15   11   17 1   
    16   11   18 1   
    17   12   13 1   
    18   12   14 1   
    19   19   20 1   
    20   19   28 1   
    21   20   21 1   
    22   20   23 1   
    23   20   29 1   
    24   21   22 2   
    25   21   41 1   
    26   23   24 1   
    27   23   30 1   
    28   23   31 1   
    29   24   25 1   
    30   24   32 1   
    31   24   33 1   
    32   25   26 1   
    33   25   34 1   
    34   25   35 1   
    35   26   27 1   
    36   26   36 1   
    37   26   37 1   
    38   27   38 1   
    39   27   39 1   
    40   27   40 1   
    41   41   42 1   
    42   41   49 1   
    43   42   43 1   
    44   42   45 1   
    45   42   50 1   
    46   43   44 2   
    47   43   53 1   
    48   45   46 1   
    49   45   51 1   
    50   45   52 1   
    51   46   47 1   
    52   46   48 1   
    53   53   54 1   
    54   53   57 1   
    55   54   55 1   
    56   54   58 1   
    57   54   59 1   
    58   55   56 2   
    59   55   60 1   
    60   60   61 1   
    61   60   68 1   
    62   61   62 1   
    63   61   64 1   
    64   61   69 1   
    65   62   63 2   
    66   62   74 1   
    67   64   65 1   
    68   64   70 1   
    69   64   71 1   
    70   65   66 1   
    71   65   67 2   
    72   66   72 1   
    73   66   73 1   
    74   74   75 1   
    75   74   78 1   
    76   75   76 1   
    77   75   79 1   
    78   75   80 1   
    79   76   77 2   
    80   76   81 1   
    81   81   82 1   
    82   81   93 1   
    83   82   83 1   
    84   82   85 1   
    85   82   94 1   
    86   83   84 2   
    87   83  102 1   
    88   85   86 1   
    89   85   95 1   
    90   85   96 1   
    91   86   87 ar  
    92   86   88 ar  
    93   87   89 ar  
    94   87   97 1   
    95   88   90 ar  
    96   88   98 1   
    97   89   91 ar  
    98   89   99 1   
    99   90   91 ar  
   100   90  100 1   
   101   91   92 1   
   102   92  101 1   
   103  102  103 1   
   104  102  110 1   
   105  103  104 1   
   106  103  106 1   
   107  103  111 1   
   108  104  105 2   
   109  104  121 1   
   110  106  107 1   
   111  106  108 1   
   112  106  112 1   
   113  107  109 1   
   114  107  113 1   
   115  107  114 1   
   116  108  115 1   
   117  108  116 1   
   118  108  117 1   
   119  109  118 1   
   120  109  119 1   
   121  109  120 1   
   122  121  122 1   
   123  121  127 1   
   124  122  123 1   
   125  122  125 1   
   126  122  128 1   
   127  123  124 2   
   128  123  132 1   
   129  125  126 1   
   130  125  129 1   
   131  125  130 1   
   132  126  131 1   
   133  132  133 1   
   134  132  137 1   
   135  133  134 1   
   136  133  136 1   
   137  133  138 1   
   138  134  135 2   
   139  134  142 1   
   140  136  139 1   
   141  136  140 1   
   142  136  141 1   
   143  142  143 1   
   144  142  147 1   
   145  143  144 1   
   146  143  146 1   
   147  143  148 1   
   148  144  145 2   
   149  144  152 1   
   150  146  149 1   
   151  146  150 1   
   152  146  151 1   
   153  152  153 1   
   154  152  161 1   
   155  153  154 1   
   156  153  156 1   
   157  153  162 1   
   158  154  155 2   
   159  154  167 1   
   160  156  157 1   
   161  156  163 1   
   162  156  164 1   
   163  157  158 1   
   164  157  165 1   
   165  157  166 1   
   166  158  159 1   
   167  158  160 1   
   168  167  168 1   
   169  167  172 1   
   170  168  169 1   
   171  168  170 1   
   172  168  171 1   
   173  174  175 1   
   174  174  176 1   
   175  177  178 1   
   176  177  179 1   
   177  180  181 1   
   178  180  182 1   
@<TRIPOS>SUBSTRUCTURE
     1 MOL         1 TEMP              0 ****  ****    0 ROOT
