@<TRIPOS>MOLECULE
MOL
  185   180     1     0     0
SMALL
resp


@<TRIPOS>ATOM
      1 C1          5.5010   -0.6960    5.6890 c3        1 MOL     -0.335035
      2 C2          5.0200   -0.3280    4.3240 c         1 MOL      0.637042
      3 O1          3.8260   -0.3880    4.0210 o         1 MOL     -0.600859
      4 H1          5.2190    0.0850    6.3950 hc        1 MOL      0.083807
      5 H2          5.0480   -1.6400    5.9930 hc        1 MOL      0.083807
      6 H3          6.5860   -0.8010    5.6770 hc        1 MOL      0.083807
      7 N1          5.9050    0.0830    3.3930 n         1 MOL     -0.533208
      8 C3          5.6990    0.5670    2.0020 c3        1 MOL      0.128324
      9 C4          5.1530   -0.5390    1.1610 c         1 MOL      0.284271
     10 O2          4.2280   -0.2090    0.4170 o         1 MOL     -0.484124
     11 C5          7.0290    0.9980    1.3490 c3        1 MOL     -0.173431
     12 C6          8.2140   -0.0130    1.4220 c         1 MOL      0.609275
     13 O3          9.2750    0.1100    0.7600 o         1 MOL     -0.634390
     14 O4          8.1350   -1.0110    2.1640 o         1 MOL     -0.634390
     15 H4          6.8160    0.1640    3.8280 hn        1 MOL      0.281070
     16 H5          4.9100    1.3250    2.0320 h1        1 MOL      0.085985
     17 H6          7.3980    1.9550    1.6970 hc        1 MOL      0.059671
     18 H7          6.7790    1.2250    0.3200 hc        1 MOL      0.059671
     19 N2          5.6600   -1.7720    1.2980 n         1 MOL     -0.055997
     20 C7          4.9620   -3.0410    0.8880 c3        1 MOL     -0.199241
     21 C8          4.9520   -3.1530   -0.6740 c         1 MOL      0.609456
     22 O5          5.9320   -3.5220   -1.2790 o         1 MOL     -0.549806
     23 C9          5.6310   -4.3340    1.4060 c3        1 MOL     -0.152415
     24 C10         5.7990   -4.3270    2.9150 c3        1 MOL      0.194659
     25 C11         6.2980   -5.6650    3.5070 c3        1 MOL      0.084040
     26 C12         6.4310   -5.5830    5.0490 c3        1 MOL      0.000492
     27 N3          7.1900   -6.7420    5.5580 n4        1 MOL     -0.263881
     28 H8          6.5280   -1.7310    1.8100 hn        1 MOL      0.187252
     29 H9          3.9190   -3.0010    1.2180 h1        1 MOL      0.145776
     30 H10         6.6640   -4.4620    1.0540 hc        1 MOL      0.077942
     31 H11         4.9820   -5.1500    1.1160 hc        1 MOL      0.077942
     32 H12         4.8260   -4.0500    3.3270 hc        1 MOL     -0.053441
     33 H13         6.4970   -3.5420    3.1890 hc        1 MOL     -0.053441
     34 H14         7.1270   -6.0230    2.9060 hc        1 MOL     -0.014776
     35 H15         5.5300   -6.4150    3.3360 hc        1 MOL     -0.014776
     36 H16         5.4450   -5.4770    5.5050 hx        1 MOL      0.079791
     37 H17         7.0680   -4.7430    5.3190 hx        1 MOL      0.079791
     38 H18         7.3300   -6.7630    6.5490 hn        1 MOL      0.294145
     39 H19         6.7180   -7.6160    5.4120 hn        1 MOL      0.294145
     40 H20         8.0780   -6.7550    5.0850 hn        1 MOL      0.294145
     41 N4          3.8210   -2.8030   -1.3140 n         1 MOL     -0.360362
     42 C13         3.5480   -2.9850   -2.7530 c3        1 MOL      0.079501
     43 C14         3.7270   -1.6330   -3.4500 c         1 MOL      0.480465
     44 O6          3.2260   -0.6740   -2.9190 o         1 MOL     -0.446713
     45 C15         2.1680   -3.5680   -3.0920 c3        1 MOL     -0.318072
     46 C16         0.9470   -3.0660   -2.3030 c         1 MOL      0.772909
     47 O7          0.9330   -3.1430   -1.0290 o         1 MOL     -0.753067
     48 O8          0.0470   -2.4110   -2.9270 o         1 MOL     -0.753067
     49 H21         3.0680   -2.4400   -0.7540 hn        1 MOL      0.211824
     50 H22         4.2390   -3.7340   -3.1440 h1        1 MOL      0.049059
     51 H23         2.2320   -4.6430   -2.9280 hc        1 MOL      0.087383
     52 H24         2.0060   -3.4070   -4.1620 hc        1 MOL      0.087383
     53 N5          4.2780   -1.6020   -4.6570 n         1 MOL     -0.337969
     54 C17         4.6370   -0.4440   -5.4530 c3        1 MOL     -0.084695
     55 C18         5.9640    0.0150   -5.0180 c         1 MOL      0.580414
     56 O9          6.9290   -0.6880   -5.2870 o         1 MOL     -0.553355
     57 H25         4.6400   -2.4350   -5.0890 hn        1 MOL      0.283522
     58 H26         3.7890    0.2420   -5.3120 h1        1 MOL      0.071946
     59 H27         4.6860   -0.7650   -6.4910 h1        1 MOL      0.071946
     60 N6          6.1820    1.0850   -4.2530 n         1 MOL     -0.526771
     61 C19         5.1430    1.9670   -3.6500 c3        1 MOL      0.314081
     62 C20         5.6890    2.4090   -2.2840 c         1 MOL      0.541513
     63 O10         6.8800    2.4900   -2.0860 o         1 MOL     -0.503490
     64 C21         4.7590    3.0460   -4.6580 c3        1 MOL     -0.458769
     65 C22         5.8130    4.2120   -4.9240 c         1 MOL      0.744416
     66 N7          5.3360    5.3830   -5.0960 n         1 MOL     -0.788952
     67 O11         6.9760    4.0070   -4.8850 o         1 MOL     -0.537480
     68 H28         7.1360    1.2270   -3.9710 hn        1 MOL      0.333608
     69 H29         4.2370    1.3710   -3.5190 h1        1 MOL      0.047981
     70 H30         3.9430    3.6610   -4.2870 hc        1 MOL      0.094135
     71 H31         4.4990    2.6240   -5.6300 hc        1 MOL      0.094135
     72 H32         4.3480    5.5640   -5.0160 hn        1 MOL      0.356154
     73 H33         5.9150    6.1450   -5.4180 hn        1 MOL      0.356154
     74 N8          4.8200    2.6920   -1.3050 n         1 MOL     -0.386757
     75 C23         3.3860    2.7610   -1.3580 c3        1 MOL      0.037134
     76 C24         2.5420    3.1340   -0.0660 c         1 MOL      0.624295
     77 O12         3.0700    3.6460    0.9240 o         1 MOL     -0.513315
     78 H34         5.2860    2.8030   -0.4130 hn        1 MOL      0.233384
     79 H35         3.0510    1.7670   -1.6690 h1        1 MOL     -0.028216
     80 H36         3.0820    3.3960   -2.1880 h1        1 MOL     -0.028216
     81 N9          1.2050    3.0190   -0.1550 n         1 MOL     -0.635498
     82 C25         0.2470    3.3610    0.9680 c3        1 MOL      0.156757
     83 C26        -0.8930    2.2730    1.0260 c         1 MOL      0.843858
     84 O13        -1.1680    1.5220    0.0990 o         1 MOL     -0.682631
     85 C27        -0.3000    4.8600    0.6770 c3        1 MOL     -0.266014
     86 C28        -1.0870    5.4020    1.9220 ca        1 MOL      0.163743
     87 C29        -2.0900    6.3040    1.8160 ca        1 MOL     -0.217636
     88 C30        -0.6530    5.1110    3.2450 ca        1 MOL     -0.217636
     89 C31        -2.7520    6.8500    2.9570 ca        1 MOL     -0.239744
     90 C32        -1.1750    5.8020    4.4480 ca        1 MOL     -0.239744
     91 C33        -2.2970    6.5820    4.2890 ca        1 MOL      0.339649
     92 O14        -2.8880    7.1890    5.3680 oh        1 MOL     -0.507494
     93 H37         0.7510    2.6380   -0.9700 hn        1 MOL      0.323852
     94 H38         0.7900    3.3070    1.9020 h1        1 MOL      0.028635
     95 H39        -1.0200    4.8640   -0.1380 hc        1 MOL      0.117715
     96 H40         0.5100    5.5510    0.4370 hc        1 MOL      0.117715
     97 H41        -2.4880    6.6520    0.8770 ha        1 MOL      0.153386
     98 H42         0.1640    4.4110    3.3540 ha        1 MOL      0.153386
     99 H43        -3.5080    7.6050    2.7770 ha        1 MOL      0.152081
    100 H44        -0.7600    5.5920    5.4220 ha        1 MOL      0.152081
    101 H45        -2.5130    6.9490    6.2230 ho        1 MOL      0.376350
    102 N10        -1.5760    2.2500    2.1730 n         1 MOL     -0.774176
    103 C34        -2.8800    1.5850    2.3640 c3        1 MOL     -0.095167
    104 C35        -3.9670    2.2320    1.5400 c         1 MOL      0.694277
    105 O15        -4.1390    3.4330    1.6720 o         1 MOL     -0.547727
    106 C36        -3.3100    1.4930    3.8760 c3        1 MOL      0.202027
    107 C37        -2.6430    0.3260    4.6100 c3        1 MOL      0.153493
    108 C38        -3.0540    2.7600    4.6770 c3        1 MOL     -0.052156
    109 C39        -3.3640   -0.0030    5.9050 c3        1 MOL     -0.335880
    110 H46        -1.4420    3.0220    2.8230 hn        1 MOL      0.347338
    111 H47        -2.8010    0.6020    1.9050 h1        1 MOL      0.080234
    112 H48        -4.3850    1.3360    3.8870 hc        1 MOL     -0.013504
    113 H49        -1.5780    0.4760    4.7890 hc        1 MOL     -0.019221
    114 H50        -2.8990   -0.5470    3.9990 hc        1 MOL     -0.019221
    115 H51        -1.9930    2.9660    4.8340 hc        1 MOL      0.006597
    116 H52        -3.4620    3.6020    4.1310 hc        1 MOL      0.006597
    117 H53        -3.5770    2.7930    5.6240 hc        1 MOL      0.006597
    118 H54        -2.9450   -0.9840    6.1220 hc        1 MOL      0.076809
    119 H55        -3.0190    0.7360    6.6390 hc        1 MOL      0.076809
    120 H56        -4.4420    0.0670    5.7740 hc        1 MOL      0.076809
    121 N11        -4.7650    1.4500    0.7560 n         1 MOL     -0.368945
    122 C40        -5.8170    1.8470   -0.1140 c3        1 MOL      0.053079
    123 C41        -5.7230    1.1340   -1.4350 c         1 MOL      0.453708
    124 O16        -5.1940    0.0590   -1.4020 o         1 MOL     -0.306274
    125 C42        -7.1420    1.4990    0.5820 c3        1 MOL     -0.298111
    126 O17        -7.2500    0.0970    0.9620 oh        1 MOL     -0.434034
    127 H57        -4.4890    0.4750    0.6530 hn        1 MOL      0.160100
    128 H58        -5.7440    2.9140   -0.3340 h1        1 MOL      0.061050
    129 H59        -8.0010    1.7470   -0.0390 h1        1 MOL      0.153742
    130 H60        -7.0920    2.0420    1.5240 h1        1 MOL      0.153742
    131 H61        -8.1010   -0.0420    1.3920 ho        1 MOL      0.387461
    132 N12        -6.3560    1.6390   -2.4730 n         1 MOL     -0.492499
    133 C43        -6.8190    0.9610   -3.7370 c3        1 MOL      0.098706
    134 C44        -7.7760   -0.2030   -3.4660 c         1 MOL      0.395963
    135 O18        -7.6160   -1.3380   -3.9700 o         1 MOL     -0.408412
    136 C45        -5.5420    0.5500   -4.5440 c3        1 MOL     -0.124017
    137 H62        -6.6280    2.6060   -2.3810 hn        1 MOL      0.305730
    138 H63        -7.4030    1.6970   -4.3030 h1        1 MOL      0.080542
    139 H64        -5.0070   -0.1920   -3.9540 hc        1 MOL      0.046692
    140 H65        -5.7770    0.1910   -5.5520 hc        1 MOL      0.046692
    141 H66        -4.8870    1.4090   -4.6660 hc        1 MOL      0.046692
    142 N13        -8.6150    0.0520   -2.3860 n         1 MOL     -0.446119
    143 C46        -9.4260   -0.8840   -1.6270 c3        1 MOL      0.410217
    144 C47        -8.7910   -2.2760   -1.3640 c         1 MOL      0.179494
    145 O19        -9.3860   -3.2660   -1.7920 o         1 MOL     -0.434012
    146 C48       -10.7200   -0.9780   -2.3780 c3        1 MOL     -0.525479
    147 H67        -8.5750    1.0210   -2.0930 hn        1 MOL      0.235007
    148 H68        -9.6340   -0.5370   -0.6160 h1        1 MOL     -0.011171
    149 H69       -11.2160   -0.0150   -2.4920 hc        1 MOL      0.139230
    150 H70       -10.7860   -1.4850   -3.3430 hc        1 MOL      0.139230
    151 H71       -11.3540   -1.6480   -1.8000 hc        1 MOL      0.139230
    152 N14        -7.5510   -2.3580   -0.8310 n         1 MOL     -0.061736
    153 C49        -6.8090   -3.6240   -0.7360 c3        1 MOL      0.052594
    154 C50        -7.1590   -4.4960    0.4810 c         1 MOL      0.367482
    155 O20        -7.2770   -5.7280    0.4260 o         1 MOL     -0.501279
    156 C51        -5.2850   -3.3180   -0.7900 c3        1 MOL      0.182136
    157 C52        -4.6240   -2.8900    0.5260 c3        1 MOL     -0.072510
    158 C53        -3.1660   -2.3560    0.2100 c         1 MOL      0.510577
    159 O21        -2.9840   -1.1150    0.3340 o         1 MOL     -0.644023
    160 O22        -2.1910   -3.0200   -0.2430 o         1 MOL     -0.644023
    161 H72        -7.0920   -1.5060   -0.5400 hn        1 MOL     -0.013788
    162 H73        -7.0280   -4.2500   -1.5970 h1        1 MOL      0.082653
    163 H74        -5.1150   -2.6760   -1.6650 hc        1 MOL     -0.028082
    164 H75        -4.7870   -4.2600   -1.0300 hc        1 MOL     -0.028082
    165 H76        -4.6580   -3.7480    1.1950 hc        1 MOL      0.019976
    166 H77        -5.3150   -2.1460    0.9300 hc        1 MOL      0.019976
    167 N15        -7.4150   -3.8300    1.6290 n         1 MOL     -0.210809
    168 C54        -7.8150   -4.4740    2.8750 c3        1 MOL     -0.072181
    169 H78        -7.9070   -5.5480    2.7160 h1        1 MOL      0.061654
    170 H79        -7.0630   -4.2840    3.6410 h1        1 MOL      0.061654
    171 H80        -8.7750   -4.0720    3.2000 h1        1 MOL      0.061654
    172 H81        -7.2430   -2.8390    1.6020 hn        1 MOL      0.164408
    173 Ca1        -0.6740   -0.9660   -0.7250 Ca        1 MOL      1.719850
    174 O23         0.7890    0.5030   -2.4530 oh        1 MOL     -0.773554
    175 H82         1.6480    0.0800   -2.5590 ho        1 MOL      0.381046
    176 H83         0.7230    1.1100   -3.1760 ho        1 MOL      0.381046
    177 O24        -2.5580   -0.1920   -2.3860 oh        1 MOL     -0.773554
    178 H84        -2.6750   -0.0210   -3.3230 ho        1 MOL      0.381046
    179 H85        -3.4470   -0.3340   -2.0560 ho        1 MOL      0.381046
    180 O25        -0.3610   -1.6450    2.0540 oh        1 MOL     -0.773554
    181 H86         0.4190   -1.9400    2.5200 ho        1 MOL      0.381046
    182 H87        -0.9760   -1.4000    2.7420 ho        1 MOL      0.381046
    183 O26         1.5810   -0.1490    0.5290 oh        1 MOL     -0.773554
    184 H88         2.5090    0.0030    0.3390 ho        1 MOL      0.381046
    185 H89         1.4820    0.1020    1.4480 ho        1 MOL      0.381046
@<TRIPOS>BOND
     1    1    2 1   
     2    1    4 1   
     3    1    5 1   
     4    1    6 1   
     5    2    3 2   
     6    2    7 1   
     7    7    8 1   
     8    7   15 1   
     9    8    9 1   
    10    8   11 1   
    11    8   16 1   
    12    9   10 2   
    13    9   19 1   
    14   11   12 1   
    15   11   17 1   
    16   11   18 1   
    17   12   13 1   
    18   12   14 1   
    19   19   20 1   
    20   19   28 1   
    21   20   21 1   
    22   20   23 1   
    23   20   29 1   
    24   21   22 2   
    25   21   41 1   
    26   23   24 1   
    27   23   30 1   
    28   23   31 1   
    29   24   25 1   
    30   24   32 1   
    31   24   33 1   
    32   25   26 1   
    33   25   34 1   
    34   25   35 1   
    35   26   27 1   
    36   26   36 1   
    37   26   37 1   
    38   27   38 1   
    39   27   39 1   
    40   27   40 1   
    41   41   42 1   
    42   41   49 1   
    43   42   43 1   
    44   42   45 1   
    45   42   50 1   
    46   43   44 2   
    47   43   53 1   
    48   45   46 1   
    49   45   51 1   
    50   45   52 1   
    51   46   47 1   
    52   46   48 1   
    53   53   54 1   
    54   53   57 1   
    55   54   55 1   
    56   54   58 1   
    57   54   59 1   
    58   55   56 2   
    59   55   60 1   
    60   60   61 1   
    61   60   68 1   
    62   61   62 1   
    63   61   64 1   
    64   61   69 1   
    65   62   63 2   
    66   62   74 1   
    67   64   65 1   
    68   64   70 1   
    69   64   71 1   
    70   65   66 1   
    71   65   67 2   
    72   66   72 1   
    73   66   73 1   
    74   74   75 1   
    75   74   78 1   
    76   75   76 1   
    77   75   79 1   
    78   75   80 1   
    79   76   77 2   
    80   76   81 1   
    81   81   82 1   
    82   81   93 1   
    83   82   83 1   
    84   82   85 1   
    85   82   94 1   
    86   83   84 2   
    87   83  102 1   
    88   85   86 1   
    89   85   95 1   
    90   85   96 1   
    91   86   87 ar  
    92   86   88 ar  
    93   87   89 ar  
    94   87   97 1   
    95   88   90 ar  
    96   88   98 1   
    97   89   91 ar  
    98   89   99 1   
    99   90   91 ar  
   100   90  100 1   
   101   91   92 1   
   102   92  101 1   
   103  102  103 1   
   104  102  110 1   
   105  103  104 1   
   106  103  106 1   
   107  103  111 1   
   108  104  105 2   
   109  104  121 1   
   110  106  107 1   
   111  106  108 1   
   112  106  112 1   
   113  107  109 1   
   114  107  113 1   
   115  107  114 1   
   116  108  115 1   
   117  108  116 1   
   118  108  117 1   
   119  109  118 1   
   120  109  119 1   
   121  109  120 1   
   122  121  122 1   
   123  121  127 1   
   124  122  123 1   
   125  122  125 1   
   126  122  128 1   
   127  123  124 2   
   128  123  132 1   
   129  125  126 1   
   130  125  129 1   
   131  125  130 1   
   132  126  131 1   
   133  132  133 1   
   134  132  137 1   
   135  133  134 1   
   136  133  136 1   
   137  133  138 1   
   138  134  135 2   
   139  134  142 1   
   140  136  139 1   
   141  136  140 1   
   142  136  141 1   
   143  142  143 1   
   144  142  147 1   
   145  143  144 1   
   146  143  146 1   
   147  143  148 1   
   148  144  145 2   
   149  144  152 1   
   150  146  149 1   
   151  146  150 1   
   152  146  151 1   
   153  152  153 1   
   154  152  161 1   
   155  153  154 1   
   156  153  156 1   
   157  153  162 1   
   158  154  155 2   
   159  154  167 1   
   160  156  157 1   
   161  156  163 1   
   162  156  164 1   
   163  157  158 1   
   164  157  165 1   
   165  157  166 1   
   166  158  159 1   
   167  158  160 1   
   168  167  168 1   
   169  167  172 1   
   170  168  169 1   
   171  168  170 1   
   172  168  171 1   
   173  174  175 1   
   174  174  176 1   
   175  177  178 1   
   176  177  179 1   
   177  180  181 1   
   178  180  182 1   
   179  183  184 1   
   180  183  185 1   
@<TRIPOS>SUBSTRUCTURE
     1 MOL         1 TEMP              0 ****  ****    0 ROOT
