@<TRIPOS>MOLECULE
MOL
  179   176     1     0     0
SMALL
resp


@<TRIPOS>ATOM
      1 C1          0.8900   -3.2780    6.3700 c3        1 MOL     -0.242448
      2 C2          1.0060   -3.2080    4.8060 c         1 MOL      0.737871
      3 O1          0.1000   -3.4530    3.9690 o         1 MOL     -0.617202
      4 H1         -0.0760   -3.7040    6.6440 hc        1 MOL      0.082635
      5 H2          1.6890   -3.9050    6.7670 hc        1 MOL      0.082635
      6 H3          0.9750   -2.2740    6.7860 hc        1 MOL      0.082635
      7 N1          2.1830   -2.8470    4.2660 n         1 MOL     -0.659325
      8 C3          2.3900   -2.6010    2.8070 c3        1 MOL     -0.009413
      9 C4          2.5790   -4.0160    2.1540 c         1 MOL      0.841326
     10 O2          3.2090   -4.8870    2.7210 o         1 MOL     -0.578195
     11 C5          3.5490   -1.6270    2.7080 c3        1 MOL     -0.246619
     12 C6          3.7390   -1.0860    1.3240 c         1 MOL      0.606537
     13 O3          4.2770    0.0470    1.2420 o         1 MOL     -0.683163
     14 O4          3.3270   -1.6930    0.2800 o         1 MOL     -0.683163
     15 H4          2.8960   -2.5780    4.9310 hn        1 MOL      0.335539
     16 H5          1.4830   -2.2010    2.3470 h1        1 MOL     -0.002876
     17 H6          4.4100   -2.1870    3.0880 hc        1 MOL      0.125911
     18 H7          3.3530   -0.7310    3.3090 hc        1 MOL      0.125911
     19 N2          2.2370   -4.1270    0.8510 n         1 MOL     -0.704883
     20 C7          2.3840   -5.2640   -0.1380 c3        1 MOL      0.164952
     21 C8          3.4970   -5.0530   -1.2050 c         1 MOL      0.460975
     22 O5          4.1980   -6.0090   -1.5650 o         1 MOL     -0.561513
     23 C9          0.9850   -5.5880   -0.6760 c3        1 MOL      0.067544
     24 C10         1.0160   -6.9390   -1.4180 c3        1 MOL     -0.070517
     25 C11        -0.4260   -7.2970   -1.9280 c3        1 MOL     -0.078501
     26 C12        -0.5880   -8.8340   -2.2760 c3        1 MOL      0.027897
     27 N3         -1.9210   -9.2490   -2.6820 n4        1 MOL     -0.247476
     28 H8          2.0930   -3.2630    0.3540 hn        1 MOL      0.414562
     29 H9          2.6560   -6.2060    0.3320 h1        1 MOL      0.063273
     30 H10         0.6890   -4.8150   -1.3730 hc        1 MOL      0.005470
     31 H11         0.3700   -5.6060    0.2280 hc        1 MOL      0.005470
     32 H12         1.3260   -7.7500   -0.7640 hc        1 MOL      0.042266
     33 H13         1.6710   -6.8620   -2.2810 hc        1 MOL      0.042266
     34 H14        -0.8690   -6.5960   -2.6340 hc        1 MOL      0.054054
     35 H15        -1.0760   -7.1910   -1.0620 hc        1 MOL      0.054054
     36 H16        -0.3350   -9.3690   -1.3590 hx        1 MOL      0.076771
     37 H17         0.1090   -9.1400   -3.0500 hx        1 MOL      0.076771
     38 H18        -2.2840   -8.6330   -3.4030 hn        1 MOL      0.249941
     39 H19        -1.9650  -10.1910   -3.0550 hn        1 MOL      0.249941
     40 H20        -2.5200   -9.3220   -1.8670 hn        1 MOL      0.249941
     41 N4          3.7160   -3.8230   -1.6560 n         1 MOL     -0.249087
     42 C13         4.9390   -3.5450   -2.4430 c3        1 MOL     -0.028517
     43 C14         6.0600   -3.0460   -1.5200 c         1 MOL      0.476020
     44 O6          7.1600   -2.9530   -2.0270 o         1 MOL     -0.557620
     45 C15         4.7820   -2.5040   -3.5620 c3        1 MOL     -0.388444
     46 C16         4.1100   -1.2350   -3.0710 c         1 MOL      0.864282
     47 O7          2.9430   -0.8870   -3.2700 o         1 MOL     -0.795127
     48 O8          4.7240   -0.4170   -2.3270 o         1 MOL     -0.795127
     49 H21         3.2120   -3.0850   -1.1840 hn        1 MOL      0.068142
     50 H22         5.2960   -4.4600   -2.8970 h1        1 MOL      0.163127
     51 H23         4.1600   -2.9550   -4.3400 hc        1 MOL      0.127440
     52 H24         5.7290   -2.2250   -4.0300 hc        1 MOL      0.127440
     53 N5          5.7850   -2.6810   -0.2680 n         1 MOL     -0.111187
     54 C17         6.8030   -2.2630    0.7510 c3        1 MOL     -0.172841
     55 C18         7.3890   -0.8800    0.4410 c         1 MOL      0.515733
     56 O9          8.4550   -0.4790    0.8860 o         1 MOL     -0.534118
     57 H25         4.8290   -2.5600    0.0110 hn        1 MOL      0.082763
     58 H26         7.6300   -2.9730    0.8540 h1        1 MOL      0.108696
     59 H27         6.3150   -2.1780    1.7170 h1        1 MOL      0.108696
     60 N6          6.6650   -0.0550   -0.2910 n         1 MOL     -0.070118
     61 C19         7.0400    1.2470   -0.7360 c3        1 MOL     -0.039190
     62 C20         5.9880    2.3790   -0.7450 c         1 MOL      0.554882
     63 O10         4.8000    2.1740   -0.9480 o         1 MOL     -0.408064
     64 C21         7.7270    1.1960   -2.1290 c3        1 MOL     -0.419137
     65 C22         9.0640    0.5200   -2.1300 c         1 MOL      0.658412
     66 N7          9.1220   -0.7900   -2.3780 n         1 MOL     -0.777772
     67 O11        10.1020    1.0880   -1.8610 o         1 MOL     -0.548128
     68 H28         5.7400   -0.3620   -0.5850 hn        1 MOL      0.064996
     69 H29         7.8370    1.5730   -0.0790 h1        1 MOL      0.075072
     70 H30         7.7750    2.1930   -2.5620 hc        1 MOL      0.123137
     71 H31         7.1350    0.6750   -2.8840 hc        1 MOL      0.123137
     72 H32         8.2120   -1.2360   -2.3780 hn        1 MOL      0.374397
     73 H33         9.9130   -1.3960   -2.5660 hn        1 MOL      0.374397
     74 N8          6.3880    3.6100   -0.4410 n         1 MOL     -0.439415
     75 C23         5.4690    4.7820   -0.6250 c3        1 MOL     -0.053855
     76 C24         4.2570    4.8890    0.3270 c         1 MOL      0.598508
     77 O12         4.4530    5.0440    1.5430 o         1 MOL     -0.524332
     78 H34         7.3350    3.8020   -0.1650 hn        1 MOL      0.330474
     79 H35         5.0230    4.6670   -1.6140 h1        1 MOL      0.067100
     80 H36         6.0290    5.7090   -0.5960 h1        1 MOL      0.067100
     81 N9          3.0020    4.8300   -0.1880 n         1 MOL     -0.674958
     82 C25         1.7560    4.6530    0.6180 c3        1 MOL      0.471136
     83 C26         1.5760    3.2570    1.1390 c         1 MOL      0.416683
     84 O13         2.3210    2.3700    0.6260 o         1 MOL     -0.475028
     85 C27         0.5520    5.2530   -0.1350 c3        1 MOL      0.002707
     86 C28         0.5380    6.7030   -0.5530 ca        1 MOL      0.145152
     87 C29         1.0600    7.6720    0.3760 ca        1 MOL     -0.299576
     88 C30         0.0430    7.1380   -1.8300 ca        1 MOL     -0.299576
     89 C31         1.1750    9.0820   -0.0180 ca        1 MOL     -0.133933
     90 C32         0.1530    8.5370   -2.1600 ca        1 MOL     -0.133933
     91 C33         0.6720    9.4900   -1.2590 ca        1 MOL      0.226100
     92 O14         0.5510   10.8390   -1.4410 oh        1 MOL     -0.449379
     93 H37         3.0630    4.8100   -1.1910 hn        1 MOL      0.290225
     94 H38         1.7080    5.2070    1.5530 h1        1 MOL     -0.022154
     95 H39        -0.3060    5.0190    0.4860 hc        1 MOL     -0.038967
     96 H40         0.5400    4.6850   -1.0590 hc        1 MOL     -0.038967
     97 H41         1.3730    7.4110    1.3740 ha        1 MOL      0.170884
     98 H42        -0.4260    6.3850   -2.4400 ha        1 MOL      0.170884
     99 H43         1.7670    9.8030    0.5260 ha        1 MOL      0.134507
    100 H44        -0.1690    8.8840   -3.1290 ha        1 MOL      0.134507
    101 H45        -0.0410   11.0860   -2.1490 ho        1 MOL      0.362210
    102 N10         0.6210    3.0460    2.0690 n         1 MOL     -0.657572
    103 C34         0.1120    1.7530    2.5790 c3        1 MOL      0.061123
    104 C35        -0.1620    0.7030    1.5710 c         1 MOL      0.536863
    105 O15         0.8040    0.1880    0.9490 o         1 MOL     -0.520961
    106 C36         1.1190    1.3770    3.7030 c3        1 MOL      0.249825
    107 C37         0.5760    0.1860    4.5140 c3        1 MOL      0.026206
    108 C38         1.5590    2.4680    4.6670 c3        1 MOL     -0.499041
    109 C39        -0.7230    0.4190    5.3330 c3        1 MOL     -0.137880
    110 H46         0.1080    3.8420    2.4420 hn        1 MOL      0.364876
    111 H47        -0.8070    1.9330    3.1460 h1        1 MOL      0.048093
    112 H48         2.0720    1.0360    3.2990 hc        1 MOL      0.099452
    113 H49         1.3450   -0.1530    5.2060 hc        1 MOL     -0.013074
    114 H50         0.4480   -0.6730    3.8640 hc        1 MOL     -0.013074
    115 H51         2.3180    2.1520    5.3850 hc        1 MOL      0.132296
    116 H52         2.1670    3.1030    4.0300 hc        1 MOL      0.132296
    117 H53         0.6790    2.9450    5.0850 hc        1 MOL      0.132296
    118 H54        -0.7610   -0.2860    6.1620 hc        1 MOL      0.029658
    119 H55        -0.6800    1.4460    5.7010 hc        1 MOL      0.029658
    120 H56        -1.5660    0.2550    4.6640 hc        1 MOL      0.029658
    121 N11        -1.4390    0.2900    1.4490 n         1 MOL     -0.465995
    122 C40        -1.8820   -0.8620    0.6590 c3        1 MOL     -0.162855
    123 C41        -3.4000   -0.9920    0.4460 c         1 MOL      0.484153
    124 O16        -3.8990   -1.9850   -0.1520 o         1 MOL     -0.524240
    125 C42        -1.2860   -2.1710    1.2360 c3        1 MOL      0.684934
    126 O17        -1.7310   -2.2860    2.5420 oh        1 MOL     -0.648544
    127 H57        -2.1500    0.7600    1.9800 hn        1 MOL      0.301572
    128 H58        -1.4480   -0.7650   -0.3410 h1        1 MOL      0.138315
    129 H59        -0.2030   -2.0840    1.1210 h1        1 MOL     -0.165101
    130 H60        -1.6430   -3.0140    0.6370 h1        1 MOL     -0.165101
    131 H61        -1.1610   -2.9230    2.9830 ho        1 MOL      0.403672
    132 N12        -4.1500    0.0430    0.8150 n         1 MOL     -0.358945
    133 C43        -5.5530    0.1830    0.3520 c3        1 MOL      0.051298
    134 C44        -5.5800    0.6680   -1.1290 c         1 MOL      0.615194
    135 O18        -4.6310    1.2800   -1.5790 o         1 MOL     -0.593611
    136 C45        -6.3350    1.0860    1.2880 c3        1 MOL     -0.249503
    137 H62        -3.7340    0.8440    1.2750 hn        1 MOL      0.252520
    138 H63        -6.0210   -0.8070    0.3100 h1        1 MOL      0.109766
    139 H64        -6.1180    2.1410    1.1180 hc        1 MOL      0.083805
    140 H65        -7.3970    0.8950    1.1770 hc        1 MOL      0.083805
    141 H66        -5.9880    0.8120    2.2880 hc        1 MOL      0.083805
    142 N13        -6.6010    0.3380   -1.8280 n         1 MOL     -0.615774
    143 C46        -7.8940   -0.3240   -1.4430 c3        1 MOL      0.431645
    144 C47        -9.0730    0.3720   -2.1420 c         1 MOL      0.331307
    145 O19        -8.8780    0.9390   -3.1830 o         1 MOL     -0.535484
    146 C48        -7.7920   -1.7730   -1.7870 c3        1 MOL     -0.332573
    147 H67        -6.6600    0.6380   -2.7910 hn        1 MOL      0.336956
    148 H68        -8.1170   -0.2030   -0.3920 h1        1 MOL     -0.040971
    149 H69        -6.9790   -2.2160   -1.2150 hc        1 MOL      0.097410
    150 H70        -8.5950   -2.4180   -1.4280 hc        1 MOL      0.097410
    151 H71        -7.5840   -1.8510   -2.8490 hc        1 MOL      0.097410
    152 N14       -10.2800    0.4460   -1.6600 n         1 MOL     -0.324585
    153 C49       -10.6910    0.1080   -0.2940 c3        1 MOL     -0.234251
    154 C50       -10.2380    1.1540    0.7530 c         1 MOL      0.518852
    155 O20       -10.0020    0.8370    1.9030 o         1 MOL     -0.543039
    156 C51       -12.2580   -0.2450   -0.1800 c3        1 MOL      0.023356
    157 C52       -12.8300   -1.1990   -1.2040 c3        1 MOL     -0.104239
    158 C53       -14.2920   -1.4990   -0.9220 c         1 MOL      0.643718
    159 O21       -15.1080   -0.4900   -0.8860 o         1 MOL     -0.637387
    160 O22       -14.6710   -2.6990   -0.7970 o         1 MOL     -0.637387
    161 H72       -10.9460    0.9400   -2.2440 hn        1 MOL      0.326739
    162 H73       -10.1860   -0.8330   -0.0930 h1        1 MOL      0.137127
    163 H74       -12.8450    0.6680   -0.1130 hc        1 MOL      0.034147
    164 H75       -12.4240   -0.8330    0.7270 hc        1 MOL      0.034147
    165 H76       -12.2410   -2.1110   -1.1400 hc        1 MOL      0.004734
    166 H77       -12.6680   -0.8070   -2.2130 hc        1 MOL      0.004734
    167 N15        -9.9550    2.2940    0.2020 n         1 MOL     -0.206253
    168 C54        -9.3880    3.4630    0.9000 c3        1 MOL     -0.263174
    169 H78        -8.8850    4.1070    0.1780 h1        1 MOL      0.115135
    170 H79       -10.1890    4.0200    1.3870 h1        1 MOL      0.115135
    171 H80        -8.6710    3.1270    1.6490 h1        1 MOL      0.115135
    172 H81       -10.3390    2.3740   -0.7240 hn        1 MOL      0.230555
    173 Ca1         2.6380    0.4800   -1.0570 Ca        1 MOL      1.791686
    174 O23         0.2030    1.0200   -1.7100 oh        1 MOL     -0.898376
    175 H82        -0.2990    1.8240   -1.5650 ho        1 MOL      0.438160
    176 H83        -0.3310    0.5280   -2.3300 ho        1 MOL      0.438160
    177 O24         2.5640    2.4940   -2.9080 oh        1 MOL     -0.898376
    178 H84         1.9110    2.2480   -3.5610 ho        1 MOL      0.438160
    179 H85         2.8150    3.3900   -3.1450 ho        1 MOL      0.438160
@<TRIPOS>BOND
     1    1    2 1   
     2    1    4 1   
     3    1    5 1   
     4    1    6 1   
     5    2    3 2   
     6    2    7 1   
     7    7    8 1   
     8    7   15 1   
     9    8    9 1   
    10    8   11 1   
    11    8   16 1   
    12    9   10 2   
    13    9   19 1   
    14   11   12 1   
    15   11   17 1   
    16   11   18 1   
    17   12   13 1   
    18   12   14 1   
    19   19   20 1   
    20   19   28 1   
    21   20   21 1   
    22   20   23 1   
    23   20   29 1   
    24   21   22 2   
    25   21   41 1   
    26   23   24 1   
    27   23   30 1   
    28   23   31 1   
    29   24   25 1   
    30   24   32 1   
    31   24   33 1   
    32   25   26 1   
    33   25   34 1   
    34   25   35 1   
    35   26   27 1   
    36   26   36 1   
    37   26   37 1   
    38   27   38 1   
    39   27   39 1   
    40   27   40 1   
    41   41   42 1   
    42   41   49 1   
    43   42   43 1   
    44   42   45 1   
    45   42   50 1   
    46   43   44 2   
    47   43   53 1   
    48   45   46 1   
    49   45   51 1   
    50   45   52 1   
    51   46   47 1   
    52   46   48 1   
    53   53   54 1   
    54   53   57 1   
    55   54   55 1   
    56   54   58 1   
    57   54   59 1   
    58   55   56 2   
    59   55   60 1   
    60   60   61 1   
    61   60   68 1   
    62   61   62 1   
    63   61   64 1   
    64   61   69 1   
    65   62   63 2   
    66   62   74 1   
    67   64   65 1   
    68   64   70 1   
    69   64   71 1   
    70   65   66 1   
    71   65   67 2   
    72   66   72 1   
    73   66   73 1   
    74   74   75 1   
    75   74   78 1   
    76   75   76 1   
    77   75   79 1   
    78   75   80 1   
    79   76   77 2   
    80   76   81 1   
    81   81   82 1   
    82   81   93 1   
    83   82   83 1   
    84   82   85 1   
    85   82   94 1   
    86   83   84 2   
    87   83  102 1   
    88   85   86 1   
    89   85   95 1   
    90   85   96 1   
    91   86   87 ar  
    92   86   88 ar  
    93   87   89 ar  
    94   87   97 1   
    95   88   90 ar  
    96   88   98 1   
    97   89   91 ar  
    98   89   99 1   
    99   90   91 ar  
   100   90  100 1   
   101   91   92 1   
   102   92  101 1   
   103  102  103 1   
   104  102  110 1   
   105  103  104 1   
   106  103  106 1   
   107  103  111 1   
   108  104  105 2   
   109  104  121 1   
   110  106  107 1   
   111  106  108 1   
   112  106  112 1   
   113  107  109 1   
   114  107  113 1   
   115  107  114 1   
   116  108  115 1   
   117  108  116 1   
   118  108  117 1   
   119  109  118 1   
   120  109  119 1   
   121  109  120 1   
   122  121  122 1   
   123  121  127 1   
   124  122  123 1   
   125  122  125 1   
   126  122  128 1   
   127  123  124 2   
   128  123  132 1   
   129  125  126 1   
   130  125  129 1   
   131  125  130 1   
   132  126  131 1   
   133  132  133 1   
   134  132  137 1   
   135  133  134 1   
   136  133  136 1   
   137  133  138 1   
   138  134  135 2   
   139  134  142 1   
   140  136  139 1   
   141  136  140 1   
   142  136  141 1   
   143  142  143 1   
   144  142  147 1   
   145  143  144 1   
   146  143  146 1   
   147  143  148 1   
   148  144  145 2   
   149  144  152 1   
   150  146  149 1   
   151  146  150 1   
   152  146  151 1   
   153  152  153 1   
   154  152  161 1   
   155  153  154 1   
   156  153  156 1   
   157  153  162 1   
   158  154  155 2   
   159  154  167 1   
   160  156  157 1   
   161  156  163 1   
   162  156  164 1   
   163  157  158 1   
   164  157  165 1   
   165  157  166 1   
   166  158  159 1   
   167  158  160 1   
   168  167  168 1   
   169  167  172 1   
   170  168  169 1   
   171  168  170 1   
   172  168  171 1   
   173  174  175 1   
   174  174  176 1   
   175  177  178 1   
   176  177  179 1   
@<TRIPOS>SUBSTRUCTURE
     1 MOL         1 TEMP              0 ****  ****    0 ROOT
