@<TRIPOS>MOLECULE
MOL
  181   177     1     0     0
SMALL
resp


@<TRIPOS>ATOM
      1 C1          1.0750    7.4010   -2.2250 c3        1 MOL     -0.410779
      2 C2          2.1500    6.9730   -1.2280 c         1 MOL      0.719306
      3 O1          2.0340    7.1300   -0.0080 o         1 MOL     -0.611825
      4 H1          0.2930    6.6430   -2.2630 hc        1 MOL      0.098655
      5 H2          0.6440    8.3510   -1.9090 hc        1 MOL      0.098655
      6 H3          1.5190    7.5150   -3.2140 hc        1 MOL      0.098655
      7 N1          3.3110    6.6190   -1.7420 n         1 MOL     -0.583510
      8 C3          4.5660    6.4790   -1.0740 c3        1 MOL      0.255288
      9 C4          4.6340    5.1580   -0.3200 c         1 MOL      0.509896
     10 O2          4.6440    4.0110   -0.8820 o         1 MOL     -0.542564
     11 C5          5.7080    6.7160   -2.1040 c3        1 MOL     -0.397220
     12 C6          7.2000    6.6230   -1.5710 c         1 MOL      0.763937
     13 O3          7.4640    6.0620   -0.4640 o         1 MOL     -0.728855
     14 O4          8.1230    7.1520   -2.2230 o         1 MOL     -0.728855
     15 H4          3.3310    6.6550   -2.7530 hn        1 MOL      0.292857
     16 H5          4.6690    7.2850   -0.3470 h1        1 MOL      0.050142
     17 H6          5.5490    7.7140   -2.5110 hc        1 MOL      0.068728
     18 H7          5.6090    5.9970   -2.9230 hc        1 MOL      0.068728
     19 N2          4.7530    5.2540    1.0450 n         1 MOL     -0.563071
     20 C7          5.0020    4.0800    1.9550 c3        1 MOL      0.553362
     21 C8          3.7150    3.3370    2.2550 c         1 MOL      0.369439
     22 O5          2.6780    3.8680    1.9980 o         1 MOL     -0.526377
     23 C9          5.7410    4.6170    3.2160 c3        1 MOL     -0.555991
     24 H8          4.8230    6.1400    1.5250 hn        1 MOL      0.275924
     25 H9          5.6450    3.4630    1.3330 h1        1 MOL      0.021736
     26 H10         5.8960    3.8340    3.9630 hc        1 MOL      0.133319
     27 H11         6.7270    4.9950    2.9410 hc        1 MOL      0.133319
     28 H12         5.0900    5.3860    3.6380 hc        1 MOL      0.133319
     29 N3          3.6650    2.0390    2.6980 n         1 MOL     -0.417730
     30 C10         4.8530    1.1780    3.0020 c3        1 MOL     -0.090372
     31 C11         5.1250    0.3950    1.7050 c         1 MOL      0.593552
     32 O6          5.2490    0.9070    0.5960 o         1 MOL     -0.494461
     33 C12         4.5820    0.2900    4.2570 c3        1 MOL     -0.037604
     34 C13         3.3960   -0.6590    4.1450 c         1 MOL      0.573239
     35 O7          3.2630   -1.6080    4.9660 o         1 MOL     -0.665192
     36 O8          2.6290   -0.5900    3.1610 o         1 MOL     -0.665192
     37 H13         2.7360    1.6810    2.9170 hn        1 MOL      0.337829
     38 H14         5.6170    1.9140    3.2520 h1        1 MOL      0.051168
     39 H15         4.3960    0.9490    5.0970 hc        1 MOL      0.015434
     40 H16         5.4600   -0.2830    4.5660 hc        1 MOL      0.015434
     41 N4          5.5520   -0.8810    1.9430 n         1 MOL     -0.672983
     42 C14         6.0220   -1.7130    0.9010 c3        1 MOL      0.253780
     43 C15         6.1340   -3.1820    1.2380 c         1 MOL      0.240496
     44 O9          5.6780   -3.6510    2.2830 o         1 MOL     -0.474011
     45 H17         5.7090   -1.2330    2.8780 hn        1 MOL      0.385593
     46 H18         6.9640   -1.3860    0.4680 h1        1 MOL      0.075348
     47 H19         5.2430   -1.5200    0.1680 h1        1 MOL      0.075348
     48 N5          6.9430   -3.9820    0.4960 n         1 MOL     -0.195699
     49 C16         7.5540   -3.5840   -0.7870 c3        1 MOL      0.042622
     50 C17         6.6690   -2.9850   -1.9480 c         1 MOL      0.317896
     51 O10         7.0700   -2.1670   -2.7660 o         1 MOL     -0.419814
     52 C18         8.7900   -2.6800   -0.5400 c3        1 MOL     -0.283852
     53 C19         9.9970   -2.9410   -1.4160 c         1 MOL      0.665929
     54 N6          9.7210   -3.0100   -2.6870 n         1 MOL     -0.761921
     55 O11        11.1650   -3.1190   -1.0350 o         1 MOL     -0.590570
     56 H20         7.0260   -4.9310    0.8360 hn        1 MOL      0.236109
     57 H21         7.9370   -4.4860   -1.2690 h1        1 MOL      0.057640
     58 H22         9.0550   -2.8310    0.5110 hc        1 MOL      0.095263
     59 H23         8.6300   -1.6100   -0.6790 hc        1 MOL      0.095263
     60 H24         8.7520   -2.9090   -2.9370 hn        1 MOL      0.355600
     61 H25        10.4840   -3.2620   -3.2970 hn        1 MOL      0.355600
     62 N7          5.3130   -3.3430   -1.8930 n         1 MOL     -0.188205
     63 C20         4.4240   -2.6220   -2.7740 c3        1 MOL     -0.379130
     64 C21         3.0100   -3.1760   -2.9600 c         1 MOL      0.604202
     65 O12         2.2700   -2.7190   -3.8370 o         1 MOL     -0.533143
     66 H26         5.0530   -4.1190   -1.3140 hn        1 MOL      0.123638
     67 H27         4.9200   -2.5930   -3.7490 h1        1 MOL      0.181747
     68 H28         4.2950   -1.6350   -2.3360 h1        1 MOL      0.181747
     69 N8          2.6100   -4.1270   -2.1420 n         1 MOL     -0.323029
     70 C22         1.1740   -4.6210   -2.0390 c3        1 MOL     -0.447146
     71 C23         0.0830   -3.6120   -1.5720 c         1 MOL      0.884343
     72 O13         0.3570   -2.5990   -0.9280 o         1 MOL     -0.699958
     73 C24         1.0270   -5.8950   -1.1960 c3        1 MOL      0.465507
     74 C25         1.7180   -7.1290   -1.8250 c3        1 MOL     -0.161722
     75 O14         1.5830   -5.8730    0.0940 oh        1 MOL     -0.711050
     76 H29         3.3300   -4.5670   -1.5800 hn        1 MOL      0.335740
     77 H30         0.8970   -4.8780   -3.0640 h1        1 MOL      0.150352
     78 H31         0.0120   -6.2810   -1.1050 h1        1 MOL      0.022099
     79 H32         1.6310   -6.7760    0.4140 ho        1 MOL      0.452751
     80 H33         1.8010   -7.9710   -1.1360 hc        1 MOL      0.027373
     81 H34         1.1020   -7.4610   -2.6510 hc        1 MOL      0.027373
     82 H35         2.7390   -6.9300   -2.1520 hc        1 MOL      0.027373
     83 N9         -1.1960   -3.9450   -1.9050 n         1 MOL     -0.274520
     84 C26        -2.4310   -3.1710   -1.7020 c3        1 MOL     -0.267421
     85 C27        -3.0840   -3.6100   -0.4190 c         1 MOL      0.344675
     86 O15        -3.1140   -4.7690   -0.1410 o         1 MOL     -0.497641
     87 C28        -3.2780   -3.1580   -2.9630 c3        1 MOL      0.293525
     88 C29        -4.5950   -2.3200   -2.6840 c3        1 MOL      0.080482
     89 C30        -2.4780   -2.7190   -4.1850 c3        1 MOL     -0.276695
     90 C31        -5.5350   -2.2800   -3.8950 c3        1 MOL     -0.259931
     91 H36        -1.4450   -4.8530   -2.2690 hn        1 MOL      0.201574
     92 H37        -2.1170   -2.1380   -1.5640 h1        1 MOL      0.142919
     93 H38        -3.6060   -4.1680   -3.2210 hc        1 MOL     -0.019091
     94 H39        -4.3840   -1.3040   -2.3250 hc        1 MOL     -0.017357
     95 H40        -5.1090   -2.7700   -1.8320 hc        1 MOL     -0.017357
     96 H41        -1.4670   -3.1120   -4.1300 hc        1 MOL      0.048984
     97 H42        -3.0100   -3.2100   -4.9930 hc        1 MOL      0.048984
     98 H43        -2.6000   -1.6440   -4.3000 hc        1 MOL      0.048984
     99 H44        -5.2340   -1.4760   -4.5730 hc        1 MOL      0.056907
    100 H45        -5.4940   -3.2490   -4.3920 hc        1 MOL      0.056907
    101 H46        -6.5350   -1.9880   -3.5780 hc        1 MOL      0.056907
    102 N10        -3.5320   -2.6780    0.4370 n         1 MOL     -0.073350
    103 C32        -4.1740   -2.7670    1.7140 c3        1 MOL      0.111806
    104 C33        -5.5310   -2.0740    1.8480 c         1 MOL      0.377008
    105 O16        -6.1220   -2.1690    2.9150 o         1 MOL     -0.527219
    106 C34        -3.2490   -2.4730    2.8520 c3        1 MOL     -0.060120
    107 C35        -1.9860   -3.3040    2.8050 c         1 MOL      0.518517
    108 O17        -1.0080   -2.8330    2.1810 o         1 MOL     -0.658214
    109 O18        -1.8820   -4.4120    3.4120 o         1 MOL     -0.658214
    110 H47        -3.2370   -1.7520    0.1560 hn        1 MOL      0.103918
    111 H48        -4.3910   -3.8360    1.8120 h1        1 MOL      0.057129
    112 H49        -3.8150   -2.6560    3.7680 hc        1 MOL      0.018530
    113 H50        -2.9590   -1.4270    2.9320 hc        1 MOL      0.018530
    114 N11        -5.9100   -1.1910    0.9030 n         1 MOL     -0.486455
    115 C36        -7.2310   -0.3800    1.0060 c3        1 MOL      0.442792
    116 C37        -6.9450    1.0300    0.4570 c         1 MOL      0.262072
    117 O19        -7.1490    1.3200   -0.6990 o         1 MOL     -0.417369
    118 C38        -8.3560   -0.9630    0.1250 c3        1 MOL     -0.479238
    119 C39        -9.7340   -0.4050    0.1750 ca        1 MOL      0.348008
    120 C40       -10.4780   -0.3250   -1.0190 ca        1 MOL     -0.284042
    121 C41       -10.3120   -0.1500    1.4030 ca        1 MOL     -0.284042
    122 C42       -11.7500    0.2080   -0.9620 ca        1 MOL     -0.037587
    123 C43       -11.5700    0.4410    1.4600 ca        1 MOL     -0.037587
    124 C44       -12.3760    0.5900    0.2730 ca        1 MOL     -0.236960
    125 H51        -5.1950   -0.9560    0.2410 hn        1 MOL      0.282795
    126 H52        -7.6540   -0.4150    2.0090 h1        1 MOL      0.035502
    127 H53        -8.4390   -2.0100    0.4130 hc        1 MOL      0.128253
    128 H54        -8.0490   -0.9140   -0.9180 hc        1 MOL      0.128253
    129 H55       -10.0740   -0.5450   -2.0070 ha        1 MOL      0.148754
    130 H56        -9.8110   -0.4390    2.3170 ha        1 MOL      0.148754
    131 H57       -12.3760    0.1320   -1.8440 ha        1 MOL      0.089475
    132 H58       -11.9510    0.8060    2.4050 ha        1 MOL      0.089475
    133 H59       -13.3400    1.0750    0.2940 ha        1 MOL      0.132712
    134 N12        -6.3570    1.9020    1.3410 n         1 MOL     -0.362863
    135 C45        -5.8530    3.3240    1.2070 c3        1 MOL      0.392728
    136 C46        -5.2480    3.6030   -0.1950 c         1 MOL      0.123019
    137 O20        -5.5580    4.6120   -0.7460 o         1 MOL     -0.461882
    138 C47        -4.8070    3.5260    2.3070 c3        1 MOL     -0.066446
    139 C48        -5.1420    2.5390    3.3440 c3        1 MOL      0.013599
    140 C49        -5.8510    1.4190    2.5970 c3        1 MOL     -0.060849
    141 H60        -6.5630    4.1200    1.4120 h1        1 MOL     -0.006334
    142 H61        -3.7860    3.3520    1.9400 hc        1 MOL      0.023058
    143 H62        -4.9820    4.5230    2.6980 hc        1 MOL      0.023058
    144 H63        -4.2750    2.1200    3.8540 hc        1 MOL      0.010954
    145 H64        -5.7850    2.9110    4.1390 hc        1 MOL      0.010954
    146 H65        -5.0650    0.6910    2.4190 h1        1 MOL      0.069677
    147 H66        -6.5830    0.8520    3.1600 h1        1 MOL      0.069677
    148 N13        -4.3830    2.7090   -0.7390 n         1 MOL      0.046699
    149 C50        -3.6360    3.0170   -1.9320 c3        1 MOL     -0.599651
    150 C51        -4.5200    3.1230   -3.1290 c         1 MOL      0.639504
    151 O21        -4.1640    3.8450   -4.0580 o         1 MOL     -0.564990
    152 C52        -2.5060    1.9890   -2.2040 c3        1 MOL      0.350591
    153 C53        -1.6540    1.7160   -0.9880 c3        1 MOL     -0.208099
    154 C54        -2.2800    0.5330   -0.1840 c         1 MOL      0.751575
    155 O22        -1.5270   -0.1640    0.5770 o         1 MOL     -0.709908
    156 O23        -3.4790    0.2610   -0.2050 o         1 MOL     -0.709908
    157 H67        -4.1460    1.8300   -0.3030 hn        1 MOL      0.233967
    158 H68        -3.2210    3.9920   -1.6560 h1        1 MOL      0.208425
    159 H69        -1.8610    2.4190   -2.9730 hc        1 MOL     -0.046424
    160 H70        -2.9210    1.0890   -2.6510 hc        1 MOL     -0.046424
    161 H71        -1.5550    2.6060   -0.3590 hc        1 MOL      0.027512
    162 H72        -0.7320    1.3770   -1.4450 hc        1 MOL      0.027512
    163 N14        -5.5920    2.3260   -3.0630 n         1 MOL     -0.179154
    164 C55        -6.6590    2.3970   -4.0320 c3        1 MOL     -0.170559
    165 H73        -7.3020    1.5230   -3.9280 h1        1 MOL      0.065643
    166 H74        -7.2460    3.3000   -3.8620 h1        1 MOL      0.065643
    167 H75        -6.2380    2.4200   -5.0360 h1        1 MOL      0.065643
    168 H76        -5.7290    1.6000   -2.3870 hn        1 MOL      0.216759
    169 Ca1         0.6750   -1.1450    1.4860 Ca        1 MOL      1.685418
    170 O24         0.6810    1.6980    1.6450 oh        1 MOL     -0.817199
    171 H77         1.0270    2.1150    0.8660 ho        1 MOL      0.410141
    172 H78         0.0260    2.3170    1.9770 ho        1 MOL      0.410141
    173 O25         2.4360   -0.4870   -0.3300 oh        1 MOL     -0.817199
    174 H79         2.5800    0.4480   -0.4110 ho        1 MOL      0.410141
    175 H80         2.2890   -0.7840   -1.2310 ho        1 MOL      0.410141
    176 O26        -0.0920   -0.4310    4.2710 oh        1 MOL     -0.817199
    177 H81        -0.9240   -0.2050    4.6910 ho        1 MOL      0.410141
    178 H82         0.2610   -1.1550    4.8040 ho        1 MOL      0.410141
    179 O27         2.0620   -3.4500    1.6860 oh        1 MOL     -0.817199
    180 H83         2.8800   -3.6690    2.1140 ho        1 MOL      0.410141
    181 H84         1.8660   -4.2000    1.1340 ho        1 MOL      0.410141
@<TRIPOS>BOND
     1    1    2 1   
     2    1    4 1   
     3    1    5 1   
     4    1    6 1   
     5    2    3 2   
     6    2    7 1   
     7    7    8 1   
     8    7   15 1   
     9    8    9 1   
    10    8   11 1   
    11    8   16 1   
    12    9   10 2   
    13    9   19 1   
    14   11   12 1   
    15   11   17 1   
    16   11   18 1   
    17   12   13 1   
    18   12   14 1   
    19   19   20 1   
    20   19   24 1   
    21   20   21 1   
    22   20   23 1   
    23   20   25 1   
    24   21   22 2   
    25   21   29 1   
    26   23   26 1   
    27   23   27 1   
    28   23   28 1   
    29   29   30 1   
    30   29   37 1   
    31   30   31 1   
    32   30   33 1   
    33   30   38 1   
    34   31   32 2   
    35   31   41 1   
    36   33   34 1   
    37   33   39 1   
    38   33   40 1   
    39   34   35 1   
    40   34   36 1   
    41   41   42 1   
    42   41   45 1   
    43   42   43 1   
    44   42   46 1   
    45   42   47 1   
    46   43   44 2   
    47   43   48 1   
    48   48   49 1   
    49   48   56 1   
    50   49   50 1   
    51   49   52 1   
    52   49   57 1   
    53   50   51 2   
    54   50   62 1   
    55   52   53 1   
    56   52   58 1   
    57   52   59 1   
    58   53   54 1   
    59   53   55 2   
    60   54   60 1   
    61   54   61 1   
    62   62   63 1   
    63   62   66 1   
    64   63   64 1   
    65   63   67 1   
    66   63   68 1   
    67   64   65 2   
    68   64   69 1   
    69   69   70 1   
    70   69   76 1   
    71   70   71 1   
    72   70   73 1   
    73   70   77 1   
    74   71   72 2   
    75   71   83 1   
    76   73   74 1   
    77   73   75 1   
    78   73   78 1   
    79   74   80 1   
    80   74   81 1   
    81   74   82 1   
    82   75   79 1   
    83   83   84 1   
    84   83   91 1   
    85   84   85 1   
    86   84   87 1   
    87   84   92 1   
    88   85   86 2   
    89   85  102 1   
    90   87   88 1   
    91   87   89 1   
    92   87   93 1   
    93   88   90 1   
    94   88   94 1   
    95   88   95 1   
    96   89   96 1   
    97   89   97 1   
    98   89   98 1   
    99   90   99 1   
   100   90  100 1   
   101   90  101 1   
   102  102  103 1   
   103  102  110 1   
   104  103  104 1   
   105  103  106 1   
   106  103  111 1   
   107  104  105 2   
   108  104  114 1   
   109  106  107 1   
   110  106  112 1   
   111  106  113 1   
   112  107  108 1   
   113  107  109 1   
   114  114  115 1   
   115  114  125 1   
   116  115  116 1   
   117  115  118 1   
   118  115  126 1   
   119  116  117 2   
   120  116  134 1   
   121  118  119 1   
   122  118  127 1   
   123  118  128 1   
   124  119  120 ar  
   125  119  121 ar  
   126  120  122 ar  
   127  120  129 1   
   128  121  123 ar  
   129  121  130 1   
   130  122  124 ar  
   131  122  131 1   
   132  123  124 ar  
   133  123  132 1   
   134  124  133 1   
   135  134  135 1   
   136  134  140 1   
   137  135  136 1   
   138  135  138 1   
   139  135  141 1   
   140  136  137 2   
   141  136  148 1   
   142  138  139 1   
   143  138  142 1   
   144  138  143 1   
   145  139  140 1   
   146  139  144 1   
   147  139  145 1   
   148  140  146 1   
   149  140  147 1   
   150  148  149 1   
   151  148  157 1   
   152  149  150 1   
   153  149  152 1   
   154  149  158 1   
   155  150  151 2   
   156  150  163 1   
   157  152  153 1   
   158  152  159 1   
   159  152  160 1   
   160  153  154 1   
   161  153  161 1   
   162  153  162 1   
   163  154  155 1   
   164  154  156 1   
   165  163  164 1   
   166  163  168 1   
   167  164  165 1   
   168  164  166 1   
   169  164  167 1   
   170  170  171 1   
   171  170  172 1   
   172  173  174 1   
   173  173  175 1   
   174  176  177 1   
   175  176  178 1   
   176  179  180 1   
   177  179  181 1   
@<TRIPOS>SUBSTRUCTURE
     1 MOL         1 TEMP              0 ****  ****    0 ROOT
