@<TRIPOS>MOLECULE
MOL
  192   187     1     0     0
SMALL
resp


@<TRIPOS>ATOM
      1 C1         -9.4870    0.6300   -1.3850 c3        1 MOL     -0.390346
      2 C2         -8.2440    0.0100   -0.7380 c         1 MOL      0.883975
      3 O1         -7.2650   -0.0430   -1.4530 o         1 MOL     -0.683141
      4 H1        -10.1140   -0.1600   -1.7980 hc        1 MOL      0.091449
      5 H2        -10.0500    1.1840   -0.6340 hc        1 MOL      0.091449
      6 H3         -9.1820    1.3060   -2.1830 hc        1 MOL      0.091449
      7 N1         -8.3170   -0.4360    0.5000 n         1 MOL     -0.772926
      8 C3         -7.2540   -0.9880    1.3780 c3        1 MOL      0.311196
      9 C4         -6.8230   -2.4260    1.0300 c         1 MOL      0.340549
     10 O2         -6.5840   -3.2520    1.9250 o         1 MOL     -0.469299
     11 C5         -7.4390   -0.8700    2.8900 c3        1 MOL     -0.221698
     12 C6         -8.1530    0.4250    3.3090 c         1 MOL      0.737627
     13 O3         -7.7780    1.4830    2.7740 o         1 MOL     -0.669118
     14 O4         -9.0390    0.3920    4.1480 o         1 MOL     -0.669118
     15 H4         -9.1960   -0.3590    1.0030 hn        1 MOL      0.354858
     16 H5         -6.3980   -0.3500    1.1380 h1        1 MOL      0.056867
     17 H6         -6.4710   -0.8720    3.3850 hc        1 MOL      0.057440
     18 H7         -8.0320   -1.7240    3.2520 hc        1 MOL      0.057440
     19 N2         -6.6750   -2.7910   -0.2210 n         1 MOL     -0.140858
     20 C7         -5.9840   -4.0160   -0.7540 c3        1 MOL      0.032991
     21 C8         -4.5820   -4.1220   -0.3090 c         1 MOL      0.401342
     22 O5         -4.2930   -5.1730    0.2920 o         1 MOL     -0.536027
     23 C9         -6.0530   -3.9780   -2.2880 c3        1 MOL     -0.064343
     24 C10        -7.4430   -3.5200   -2.8240 c3        1 MOL      0.031560
     25 C11        -8.6010   -4.5240   -2.6930 c3        1 MOL     -0.018199
     26 C12        -9.8500   -4.0410   -3.4740 c3        1 MOL     -0.060655
     27 N3         -9.6790   -3.9490   -4.9370 n4        1 MOL     -0.235996
     28 H8         -7.0920   -2.2070   -0.9350 hn        1 MOL      0.061685
     29 H9         -6.5050   -4.8670   -0.3060 h1        1 MOL      0.070362
     30 H10        -5.8090   -4.9400   -2.7230 hc        1 MOL      0.043238
     31 H11        -5.2670   -3.3330   -2.6940 hc        1 MOL      0.043238
     32 H12        -7.3100   -3.4660   -3.9010 hc        1 MOL     -0.001854
     33 H13        -7.8560   -2.5570   -2.5310 hc        1 MOL     -0.001854
     34 H14        -8.8090   -4.6530   -1.6360 hc        1 MOL      0.039549
     35 H15        -8.2860   -5.5200   -3.0080 hc        1 MOL      0.039549
     36 H16       -10.1670   -3.1080   -3.0150 hx        1 MOL      0.103826
     37 H17       -10.6820   -4.7130   -3.2460 hx        1 MOL      0.103826
     38 H18       -10.5520   -3.7610   -5.4050 hn        1 MOL      0.258677
     39 H19        -8.9590   -3.3170   -5.2640 hn        1 MOL      0.258677
     40 H20        -9.3650   -4.8160   -5.3610 hn        1 MOL      0.258677
     41 N4         -3.7140   -3.1300   -0.2190 n         1 MOL     -0.266073
     42 C13        -3.7230   -1.7720   -0.7960 c3        1 MOL     -0.053362
     43 C14        -3.9200   -0.6730    0.2830 c         1 MOL      0.239398
     44 O6         -3.6450   -0.8490    1.4640 o         1 MOL     -0.411692
     45 C15        -2.4640   -1.5470   -1.6410 c3        1 MOL     -0.100520
     46 C16        -1.1040   -2.0200   -1.0870 c         1 MOL      0.513514
     47 O7         -0.6040   -1.5280   -0.0460 o         1 MOL     -0.647590
     48 O8         -0.4650   -2.8370   -1.8040 o         1 MOL     -0.647590
     49 H21        -2.9660   -3.3000    0.4450 hn        1 MOL      0.326904
     50 H22        -4.6490   -1.6110   -1.3560 h1        1 MOL      0.109761
     51 H23        -2.3230   -0.4590   -1.6510 hc        1 MOL      0.034491
     52 H24        -2.6510   -1.7400   -2.6950 hc        1 MOL      0.034491
     53 N5         -4.2680    0.4940   -0.2470 n         1 MOL     -0.185039
     54 C17        -4.3820    1.8120    0.3920 c3        1 MOL     -0.052426
     55 C18        -3.0140    2.3300    0.9250 c         1 MOL      0.497995
     56 O9         -1.9850    1.6860    0.8020 o         1 MOL     -0.466842
     57 H25        -4.4590    0.4010   -1.2330 hn        1 MOL      0.239683
     58 H26        -5.1420    1.8600    1.1730 h1        1 MOL      0.068420
     59 H27        -4.7710    2.5330   -0.3410 h1        1 MOL      0.068420
     60 N6         -3.1780    3.4710    1.5600 n         1 MOL     -0.350017
     61 C19        -2.1380    4.2360    2.1750 c3        1 MOL      0.109950
     62 C20        -2.4540    5.7650    2.1360 c         1 MOL      0.504305
     63 O10        -3.5720    6.1120    1.7590 o         1 MOL     -0.535471
     64 C21        -1.9570    3.7750    3.6690 c3        1 MOL     -0.113573
     65 C22        -1.3170    2.3750    3.6480 c         1 MOL      0.630374
     66 O11        -0.1880    2.2840    3.0790 o         1 MOL     -0.630789
     67 O12        -1.8120    1.5040    4.3590 o         1 MOL     -0.630789
     68 H28        -4.0760    3.9560    1.5890 hn        1 MOL      0.275260
     69 H29        -1.1830    4.0020    1.6900 h1        1 MOL     -0.017851
     70 H30        -2.8880    3.7940    4.2340 hc        1 MOL      0.035987
     71 H31        -1.2530    4.4740    4.1080 hc        1 MOL      0.035987
     72 N7         -1.5900    6.7200    2.4950 n         1 MOL     -0.496496
     73 C23        -0.1520    6.6520    2.5390 c3        1 MOL      0.049226
     74 C24         0.4310    6.4270    1.1590 c         1 MOL      0.603578
     75 O13        -0.1490    6.8520    0.1710 o         1 MOL     -0.522865
     76 H32        -2.0830    7.6080    2.5260 hn        1 MOL      0.330544
     77 H33         0.2590    5.9480    3.2600 h1        1 MOL      0.055544
     78 H34         0.2490    7.5580    2.9970 h1        1 MOL      0.055544
     79 N8          1.5500    5.6860    1.1450 n         1 MOL     -0.686307
     80 C25         2.1230    5.1730   -0.1160 c3        1 MOL      0.267372
     81 C26         1.3760    3.9300   -0.5670 c         1 MOL      0.748354
     82 O14         1.0320    3.1180    0.2590 o         1 MOL     -0.652405
     83 C27         3.6360    4.9460    0.0250 c3        1 MOL      0.296388
     84 C28         4.3540    6.2840    0.1540 c3        1 MOL     -0.359083
     85 O15         4.1930    4.3030   -1.1550 oh        1 MOL     -0.754790
     86 H35         1.9080    5.2450    1.9770 hn        1 MOL      0.325682
     87 H36         2.0500    5.8660   -0.9600 h1        1 MOL      0.011833
     88 H37         3.7860    4.3320    0.9170 h1        1 MOL      0.044163
     89 H38         5.1020    4.6020   -1.3040 ho        1 MOL      0.454620
     90 H39         3.9730    6.8090    1.0300 hc        1 MOL      0.096464
     91 H40         5.4410    6.1760    0.1490 hc        1 MOL      0.096464
     92 H41         4.0670    6.8650   -0.7150 hc        1 MOL      0.096464
     93 N9          1.1050    3.8060   -1.8780 n         1 MOL     -0.675510
     94 C29         0.5020    2.7310   -2.6420 c3        1 MOL      0.241991
     95 C30         0.9940    1.3420   -2.2210 c         1 MOL      0.461647
     96 O16         0.3570    0.7730   -1.4020 o         1 MOL     -0.407762
     97 C31        -1.0440    2.8520   -2.6810 c3        1 MOL      0.128330
     98 C32        -1.5070    4.2820   -3.0730 c3        1 MOL     -0.038514
     99 C33        -1.5910    1.8990   -3.7280 c3        1 MOL     -0.508196
    100 C34        -2.3670    4.9410   -2.0310 c3        1 MOL     -0.036598
    101 H42         1.2340    4.6580   -2.4030 hn        1 MOL      0.319866
    102 H43         0.8000    2.8830   -3.6810 h1        1 MOL      0.008065
    103 H44        -1.4830    2.5940   -1.7230 hc        1 MOL     -0.002338
    104 H45        -1.9770    4.2410   -4.0530 hc        1 MOL      0.008253
    105 H46        -0.6360    4.9220   -3.2070 hc        1 MOL      0.008253
    106 H47        -1.2370    0.8640   -3.6710 hc        1 MOL      0.130714
    107 H48        -2.6570    1.7710   -3.5630 hc        1 MOL      0.130714
    108 H49        -1.3560    2.1810   -4.7550 hc        1 MOL      0.130714
    109 H50        -1.8710    5.3150   -1.1270 hc        1 MOL      0.013341
    110 H51        -2.8250    5.7760   -2.5550 hc        1 MOL      0.013341
    111 H52        -3.1610    4.3040   -1.6470 hc        1 MOL      0.013341
    112 N10         1.9250    0.7580   -3.0070 n         1 MOL     -0.403201
    113 C35         2.4260   -0.7280   -2.9550 c3        1 MOL     -0.365978
    114 C36         4.0170   -0.8150   -2.8460 c         1 MOL      0.843215
    115 O17         4.5500   -1.8840   -2.9090 o         1 MOL     -0.602791
    116 C37         1.8960   -1.4380   -4.1460 c3        1 MOL      0.464688
    117 C38         2.3040   -0.7820   -5.4400 c3        1 MOL     -0.398645
    118 O18         0.4670   -1.4610   -3.9370 oh        1 MOL     -0.613711
    119 H53         2.4710    1.4010   -3.5610 hn        1 MOL      0.228868
    120 H54         2.0660   -1.1940   -2.0460 h1        1 MOL      0.182222
    121 H55         2.2380   -2.4610   -4.1680 h1        1 MOL      0.016128
    122 H56         0.2520   -1.9900   -3.1700 ho        1 MOL      0.364658
    123 H57         1.8580    0.2090   -5.5110 hc        1 MOL      0.102407
    124 H58         3.3680   -0.7530   -5.6650 hc        1 MOL      0.102407
    125 H59         1.7630   -1.2240   -6.2740 hc        1 MOL      0.102407
    126 N11         4.7040    0.3130   -2.7110 n         1 MOL     -0.523074
    127 C39         6.1320    0.2600   -2.6400 c3        1 MOL     -0.096778
    128 C40         6.6260   -0.3290   -1.3320 c         1 MOL      0.512832
    129 O19         6.9810    0.3570   -0.3220 o         1 MOL     -0.532613
    130 C41         6.8140    1.6830   -2.8250 c3        1 MOL      0.533430
    131 C42         8.3350    1.6100   -2.9890 c3        1 MOL     -0.415477
    132 O20         6.3860    2.2610   -4.0090 oh        1 MOL     -0.620803
    133 H60         4.1860    1.1480   -2.4790 hn        1 MOL      0.314987
    134 H61         6.3880   -0.3980   -3.4610 h1        1 MOL      0.084611
    135 H62         6.5060    2.3260   -2.0050 h1        1 MOL     -0.054163
    136 H63         5.4710    2.5110   -3.8510 ho        1 MOL      0.368659
    137 H64         8.7240    1.1440   -2.0860 hc        1 MOL      0.110568
    138 H65         8.7260    1.1130   -3.8770 hc        1 MOL      0.110568
    139 H66         8.6170    2.6660   -2.9790 hc        1 MOL      0.110568
    140 N12         6.6130   -1.6540   -1.3220 n         1 MOL     -0.679553
    141 C43         6.5900   -2.6000   -0.1460 c3        1 MOL      0.273570
    142 C44         5.3010   -2.3030    0.7070 c         1 MOL      0.380887
    143 O21         4.8960   -1.1610    0.7430 o         1 MOL     -0.399526
    144 C45         7.8320   -2.5950    0.8010 c3        1 MOL     -0.455652
    145 C46         9.1620   -2.5230    0.0100 c3        1 MOL      0.202402
    146 C47        10.3550   -2.5720    0.9680 c3        1 MOL     -0.116670
    147 C48        11.6000   -2.2570    0.1850 c3        1 MOL      0.045151
    148 N13        12.8540   -2.3960    0.9620 n4        1 MOL     -0.126512
    149 H67         6.2130   -2.0600   -2.1520 hn        1 MOL      0.377401
    150 H68         6.4960   -3.6110   -0.5360 h1        1 MOL      0.028393
    151 H69         7.9110   -3.4280    1.4970 hc        1 MOL      0.134526
    152 H70         7.7430   -1.7170    1.4240 hc        1 MOL      0.134526
    153 H71         9.1990   -1.5830   -0.5450 hc        1 MOL      0.012215
    154 H72         9.2510   -3.2970   -0.7530 hc        1 MOL      0.012215
    155 H73        10.3660   -3.5450    1.4640 hc        1 MOL      0.060495
    156 H74        10.1850   -1.8010    1.7170 hc        1 MOL      0.060495
    157 H75        11.4310   -1.2690   -0.2490 hx        1 MOL      0.051394
    158 H76        11.6860   -2.9670   -0.6350 hx        1 MOL      0.051394
    159 H77        13.1410   -1.5400    1.4150 hn        1 MOL      0.201430
    160 H78        12.6750   -2.9980    1.7480 hn        1 MOL      0.201430
    161 H79        13.6400   -2.7590    0.4430 hn        1 MOL      0.201430
    162 N14         4.7580   -3.3160    1.3820 n         1 MOL     -0.374041
    163 C49         3.4930   -3.1150    2.1430 c3        1 MOL      0.123458
    164 C50         2.2430   -2.6760    1.3320 c         1 MOL      0.625079
    165 O22         1.8000   -1.5400    1.5220 o         1 MOL     -0.724272
    166 C51         3.2450   -4.2890    2.9950 c3        1 MOL      0.033030
    167 C52         4.1870   -4.3490    4.2210 c3        1 MOL     -0.288419
    168 C53         4.0290   -5.6740    4.9960 c         1 MOL      0.707461
    169 O23         4.4580   -6.7600    4.5440 o         1 MOL     -0.647663
    170 O24         3.4060   -5.6270    6.0500 o         1 MOL     -0.647663
    171 H80         5.2260   -4.2140    1.4120 hn        1 MOL      0.277122
    172 H81         3.7240   -2.3110    2.8510 h1        1 MOL      0.042841
    173 H82         3.4420   -5.2270    2.4760 hc        1 MOL      0.044511
    174 H83         2.2390   -4.3120    3.4000 hc        1 MOL      0.044511
    175 H84         3.9600   -3.5300    4.8990 hc        1 MOL      0.041910
    176 H85         5.2410   -4.1570    3.9920 hc        1 MOL      0.041910
    177 N15         1.7120   -3.4290    0.3600 n         1 MOL     -0.530973
    178 C54         2.2400   -4.6630   -0.1340 c3        1 MOL     -0.001477
    179 H86         3.1630   -4.9010    0.3960 h1        1 MOL      0.028249
    180 H87         1.5150   -5.4610    0.0260 h1        1 MOL      0.028249
    181 H88         2.4480   -4.5680   -1.2000 h1        1 MOL      0.028249
    182 H89         1.0020   -2.9640   -0.1760 hn        1 MOL      0.512520
    183 Ca1         0.3690    0.6350    1.1500 Ca        1 MOL      1.710918
    184 O25         2.5980    1.2080    2.7900 oh        1 MOL     -0.872686
    185 H90         2.3920    1.3750    3.7050 ho        1 MOL      0.410632
    186 H91         3.3110    0.5680    2.8240 ho        1 MOL      0.410632
    187 O26        -0.5500   -0.5090    3.2840 oh        1 MOL     -0.872686
    188 H92        -0.1460   -0.9780    4.0150 ho        1 MOL      0.410632
    189 H93        -1.0890    0.1570    3.6950 ho        1 MOL      0.410632
    190 O27         3.0160    0.6030    0.0960 oh        1 MOL     -0.872686
    191 H94         3.3360    1.2370    0.7430 ho        1 MOL      0.410632
    192 H95         3.7200   -0.0380    0.0310 ho        1 MOL      0.410632
@<TRIPOS>BOND
     1    1    2 1   
     2    1    4 1   
     3    1    5 1   
     4    1    6 1   
     5    2    3 2   
     6    2    7 1   
     7    7    8 1   
     8    7   15 1   
     9    8    9 1   
    10    8   11 1   
    11    8   16 1   
    12    9   10 2   
    13    9   19 1   
    14   11   12 1   
    15   11   17 1   
    16   11   18 1   
    17   12   13 1   
    18   12   14 1   
    19   19   20 1   
    20   19   28 1   
    21   20   21 1   
    22   20   23 1   
    23   20   29 1   
    24   21   22 2   
    25   21   41 1   
    26   23   24 1   
    27   23   30 1   
    28   23   31 1   
    29   24   25 1   
    30   24   32 1   
    31   24   33 1   
    32   25   26 1   
    33   25   34 1   
    34   25   35 1   
    35   26   27 1   
    36   26   36 1   
    37   26   37 1   
    38   27   38 1   
    39   27   39 1   
    40   27   40 1   
    41   41   42 1   
    42   41   49 1   
    43   42   43 1   
    44   42   45 1   
    45   42   50 1   
    46   43   44 2   
    47   43   53 1   
    48   45   46 1   
    49   45   51 1   
    50   45   52 1   
    51   46   47 1   
    52   46   48 1   
    53   53   54 1   
    54   53   57 1   
    55   54   55 1   
    56   54   58 1   
    57   54   59 1   
    58   55   56 2   
    59   55   60 1   
    60   60   61 1   
    61   60   68 1   
    62   61   62 1   
    63   61   64 1   
    64   61   69 1   
    65   62   63 2   
    66   62   72 1   
    67   64   65 1   
    68   64   70 1   
    69   64   71 1   
    70   65   66 1   
    71   65   67 1   
    72   72   73 1   
    73   72   76 1   
    74   73   74 1   
    75   73   77 1   
    76   73   78 1   
    77   74   75 2   
    78   74   79 1   
    79   79   80 1   
    80   79   86 1   
    81   80   81 1   
    82   80   83 1   
    83   80   87 1   
    84   81   82 2   
    85   81   93 1   
    86   83   84 1   
    87   83   85 1   
    88   83   88 1   
    89   84   90 1   
    90   84   91 1   
    91   84   92 1   
    92   85   89 1   
    93   93   94 1   
    94   93  101 1   
    95   94   95 1   
    96   94   97 1   
    97   94  102 1   
    98   95   96 2   
    99   95  112 1   
   100   97   98 1   
   101   97   99 1   
   102   97  103 1   
   103   98  100 1   
   104   98  104 1   
   105   98  105 1   
   106   99  106 1   
   107   99  107 1   
   108   99  108 1   
   109  100  109 1   
   110  100  110 1   
   111  100  111 1   
   112  112  113 1   
   113  112  119 1   
   114  113  114 1   
   115  113  116 1   
   116  113  120 1   
   117  114  115 2   
   118  114  126 1   
   119  116  117 1   
   120  116  118 1   
   121  116  121 1   
   122  117  123 1   
   123  117  124 1   
   124  117  125 1   
   125  118  122 1   
   126  126  127 1   
   127  126  133 1   
   128  127  128 1   
   129  127  130 1   
   130  127  134 1   
   131  128  129 2   
   132  128  140 1   
   133  130  131 1   
   134  130  132 1   
   135  130  135 1   
   136  131  137 1   
   137  131  138 1   
   138  131  139 1   
   139  132  136 1   
   140  140  141 1   
   141  140  149 1   
   142  141  142 1   
   143  141  144 1   
   144  141  150 1   
   145  142  143 2   
   146  142  162 1   
   147  144  145 1   
   148  144  151 1   
   149  144  152 1   
   150  145  146 1   
   151  145  153 1   
   152  145  154 1   
   153  146  147 1   
   154  146  155 1   
   155  146  156 1   
   156  147  148 1   
   157  147  157 1   
   158  147  158 1   
   159  148  159 1   
   160  148  160 1   
   161  148  161 1   
   162  162  163 1   
   163  162  171 1   
   164  163  164 1   
   165  163  166 1   
   166  163  172 1   
   167  164  165 2   
   168  164  177 1   
   169  166  167 1   
   170  166  173 1   
   171  166  174 1   
   172  167  168 1   
   173  167  175 1   
   174  167  176 1   
   175  168  169 1   
   176  168  170 1   
   177  177  178 1   
   178  177  182 1   
   179  178  179 1   
   180  178  180 1   
   181  178  181 1   
   182  184  185 1   
   183  184  186 1   
   184  187  188 1   
   185  187  189 1   
   186  190  191 1   
   187  190  192 1   
@<TRIPOS>SUBSTRUCTURE
     1 MOL         1 TEMP              0 ****  ****    0 ROOT
