@<TRIPOS>MOLECULE
MOL
  181   177     1     0     0
SMALL
resp


@<TRIPOS>ATOM
      1 C1         -2.5180   -2.7070   -4.0370 c3        1 MOL     -0.462859
      2 C2         -3.9380   -2.2720   -3.6490 c         1 MOL      0.703127
      3 O1         -4.2590   -1.1120   -3.4170 o         1 MOL     -0.568521
      4 H1         -2.5450   -3.7240   -4.4260 hc        1 MOL      0.123577
      5 H2         -2.1280   -2.0360   -4.8020 hc        1 MOL      0.123577
      6 H3         -1.8740   -2.6720   -3.1580 hc        1 MOL      0.123577
      7 N1         -4.9060   -3.2580   -3.5740 n         1 MOL     -0.607722
      8 C3         -6.2600   -3.1480   -2.9720 c3        1 MOL      0.263060
      9 C4         -6.2420   -3.3180   -1.4480 c         1 MOL      0.524066
     10 O2         -5.4840   -4.1600   -0.9970 o         1 MOL     -0.547226
     11 C5         -7.1870   -4.1860   -3.6750 c3        1 MOL     -0.320923
     12 C6         -8.6200   -4.1910   -3.0210 c         1 MOL      0.731970
     13 O3         -9.4240   -3.2620   -3.3270 o         1 MOL     -0.731292
     14 O4         -8.9590   -4.9650   -2.1320 o         1 MOL     -0.731292
     15 H4         -4.4780   -4.1790   -3.6130 hn        1 MOL      0.301625
     16 H5         -6.6870   -2.1790   -3.2250 h1        1 MOL      0.032939
     17 H6         -6.7470   -5.1850   -3.6780 hc        1 MOL      0.038858
     18 H7         -7.3130   -3.9310   -4.7310 hc        1 MOL      0.038858
     19 N2         -7.0710   -2.6150   -0.7050 n         1 MOL     -0.457821
     20 C7         -7.0610   -2.4260    0.6950 c3        1 MOL      0.522469
     21 C8         -5.9440   -1.5950    1.2450 c         1 MOL      0.377753
     22 O5         -5.5340   -0.5850    0.5550 o         1 MOL     -0.548144
     23 C9         -8.4410   -2.0270    1.2510 c3        1 MOL     -0.292828
     24 H8         -7.7140   -2.0360   -1.2220 hn        1 MOL      0.239847
     25 H9         -6.8220   -3.4290    1.0630 h1        1 MOL     -0.060182
     26 H10        -8.3430   -2.0640    2.3340 hc        1 MOL      0.070182
     27 H11        -8.5660   -0.9550    1.0640 hc        1 MOL      0.070182
     28 H12        -9.1890   -2.7480    0.9150 hc        1 MOL      0.070182
     29 N3         -5.4570   -1.8820    2.4320 n         1 MOL     -0.433157
     30 C10        -4.4600   -1.0790    3.1910 c3        1 MOL     -0.101956
     31 C11        -5.1720    0.0740    3.9080 c         1 MOL      0.776252
     32 O6         -6.2670   -0.0470    4.5060 o         1 MOL     -0.572831
     33 C12        -3.6070   -1.8910    4.1280 c3        1 MOL     -0.434859
     34 C13        -2.8710   -3.0130    3.3240 c         1 MOL      0.800424
     35 O7         -1.9940   -2.6700    2.4550 o         1 MOL     -0.701744
     36 O8         -3.1670   -4.1970    3.6010 o         1 MOL     -0.701744
     37 H13        -5.7050   -2.7410    2.8910 hn        1 MOL      0.292190
     38 H14        -3.7660   -0.6290    2.4760 h1        1 MOL      0.133517
     39 H15        -4.2890   -2.2800    4.8820 hc        1 MOL      0.099999
     40 H16        -2.9670   -1.1570    4.6140 hc        1 MOL      0.099999
     41 N4         -4.5150    1.2770    3.8820 n         1 MOL     -0.467060
     42 C14        -5.1570    2.4750    4.5010 c3        1 MOL     -0.285823
     43 C15        -4.6000    3.8700    4.1110 c         1 MOL      0.680996
     44 O9         -5.2480    4.8060    4.6660 o         1 MOL     -0.563610
     45 H17        -3.7930    1.3790    3.1910 hn        1 MOL      0.242243
     46 H18        -5.0100    2.3120    5.5690 h1        1 MOL      0.141313
     47 H19        -6.2110    2.5240    4.2290 h1        1 MOL      0.141313
     48 N5         -3.5520    4.0260    3.3100 n         1 MOL     -0.467230
     49 C16        -2.9520    5.2730    2.9240 c3        1 MOL      0.021030
     50 C17        -2.4920    5.3400    1.4470 c         1 MOL      0.640854
     51 O10        -2.1880    4.2970    0.8750 o         1 MOL     -0.487981
     52 C18        -1.7430    5.4710    3.8110 c3        1 MOL     -0.286459
     53 C19        -2.0380    5.6570    5.2880 c         1 MOL      0.732308
     54 N6         -1.4000    4.9700    6.2460 n         1 MOL     -0.854863
     55 O11        -2.8350    6.4810    5.6240 o         1 MOL     -0.523803
     56 H20        -3.1740    3.1700    2.9150 hn        1 MOL      0.324587
     57 H21        -3.5760    6.1490    3.0740 h1        1 MOL      0.058540
     58 H22        -1.1770    6.3550    3.5200 hc        1 MOL      0.066225
     59 H23        -1.0850    4.6080    3.6530 hc        1 MOL      0.066225
     60 H24        -0.6900    4.3200    5.9530 hn        1 MOL      0.373537
     61 H25        -1.6120    5.0890    7.2340 hn        1 MOL      0.373537
     62 N7         -2.6290    6.5600    0.8250 n         1 MOL     -0.527555
     63 C20        -2.5450    6.7280   -0.6560 c3        1 MOL     -0.180078
     64 C21        -1.1040    6.9360   -1.0610 c         1 MOL      0.668465
     65 O12        -0.2640    7.4260   -0.3340 o         1 MOL     -0.508674
     66 H26        -2.8370    7.4090    1.3350 hn        1 MOL      0.343924
     67 H27        -3.1760    7.5710   -0.9440 h1        1 MOL      0.124962
     68 H28        -3.0140    5.8470   -1.1070 h1        1 MOL      0.124962
     69 N8         -0.8500    6.6570   -2.3730 n         1 MOL     -0.544282
     70 C22         0.3400    7.0650   -3.1190 c3        1 MOL     -0.119547
     71 C23         1.3460    5.9180   -3.2990 c         1 MOL      0.560032
     72 O13         2.5050    6.2160   -3.5170 o         1 MOL     -0.575231
     73 C24        -0.0470    7.7700   -4.4150 c3        1 MOL      0.355693
     74 C25        -0.8840    7.0980   -5.4720 c3        1 MOL     -0.207375
     75 O14        -0.6460    8.9800   -4.0500 oh        1 MOL     -0.614944
     76 H29        -1.5840    6.2570   -2.9560 hn        1 MOL      0.275981
     77 H30         0.9050    7.7240   -2.4710 h1        1 MOL      0.136899
     78 H31         0.8680    8.0780   -4.9320 h1        1 MOL      0.051278
     79 H32        -1.5080    8.7960   -3.6820 ho        1 MOL      0.368147
     80 H33        -0.5440    7.2190   -6.4980 hc        1 MOL      0.049913
     81 H34        -0.8980    6.0150   -5.3660 hc        1 MOL      0.049913
     82 H35        -1.9390    7.3890   -5.4550 hc        1 MOL      0.049913
     83 N9          0.9440    4.6130   -3.2650 n         1 MOL     -0.242230
     84 C26         1.7700    3.3620   -3.3070 c3        1 MOL     -0.022423
     85 C27         1.2660    2.3870   -2.2760 c         1 MOL      0.418832
     86 O15         0.1060    2.4810   -1.8740 o         1 MOL     -0.432126
     87 C28         1.8860    2.7610   -4.7730 c3        1 MOL      0.080340
     88 C29         0.6670    1.9420   -5.3440 c3        1 MOL      0.016492
     89 C30         2.3170    3.8220   -5.7030 c3        1 MOL     -0.356823
     90 C31        -0.6830    2.6520   -5.2990 c3        1 MOL      0.119063
     91 H36        -0.0170    4.5210   -3.0120 hn        1 MOL      0.178323
     92 H37         2.7620    3.6110   -2.9460 h1        1 MOL      0.084607
     93 H38         2.6870    2.0300   -4.7790 hc        1 MOL     -0.004988
     94 H39         0.5970    1.0070   -4.8010 hc        1 MOL      0.003929
     95 H40         0.7850    1.6650   -6.3880 hc        1 MOL      0.003929
     96 H41         1.6300    4.6720   -5.7320 hc        1 MOL      0.089442
     97 H42         3.1830    4.2820   -5.2370 hc        1 MOL      0.089442
     98 H43         2.5380    3.3320   -6.6430 hc        1 MOL      0.089442
     99 H44        -1.4710    1.9580   -5.5970 hc        1 MOL     -0.031154
    100 H45        -0.9360    3.0690   -4.3200 hc        1 MOL     -0.031154
    101 H46        -0.7180    3.5080   -5.9650 hc        1 MOL     -0.031154
    102 N10         2.1050    1.3500   -1.9040 n         1 MOL     -0.528853
    103 C32         1.6020    0.2940   -0.9620 c3        1 MOL      0.255666
    104 C33         2.8310   -0.1280   -0.0070 c         1 MOL      0.490566
    105 O16         2.8470   -1.2470    0.4700 o         1 MOL     -0.516059
    106 C34         1.0670   -0.8860   -1.8930 c3        1 MOL     -0.194386
    107 C35         0.2040   -1.9200   -1.1570 c         1 MOL      0.803197
    108 O17         0.2230   -3.0940   -1.4190 o         1 MOL     -0.795226
    109 O18        -0.4190   -1.6710   -0.0990 o         1 MOL     -0.795226
    110 H47         3.0060    1.1560   -2.3210 hn        1 MOL      0.301488
    111 H48         0.7160    0.6200   -0.4270 h1        1 MOL      0.051261
    112 H49         1.9860   -1.3090   -2.3080 hc        1 MOL      0.060270
    113 H50         0.4750   -0.5350   -2.7430 hc        1 MOL      0.060270
    114 N11         3.7690    0.7780    0.2840 n         1 MOL     -0.506423
    115 C36         4.8740    0.5670    1.1810 c3        1 MOL      0.383198
    116 C37         5.8790   -0.3920    0.7660 c         1 MOL      0.213001
    117 O19         6.2790   -0.3070   -0.4200 o         1 MOL     -0.517789
    118 C38         5.5100    1.9810    1.4230 c3        1 MOL     -0.089078
    119 C39         6.8150    2.1260    2.2730 ca        1 MOL     -0.054964
    120 C40         6.8310    2.3160    3.6320 ca        1 MOL     -0.046803
    121 C41         8.0830    1.8890    1.7180 ca        1 MOL     -0.046803
    122 C42         8.0250    2.3210    4.4100 ca        1 MOL     -0.180028
    123 C43         9.2280    1.6700    2.4470 ca        1 MOL     -0.180028
    124 C44         9.2630    1.9310    3.8270 ca        1 MOL     -0.059555
    125 H51         3.6500    1.6890   -0.1440 hn        1 MOL      0.223538
    126 H52         4.4460    0.3890    2.1690 h1        1 MOL     -0.031784
    127 H53         4.8140    2.6930    1.8750 hc        1 MOL      0.059373
    128 H54         5.7350    2.3330    0.4200 hc        1 MOL      0.059373
    129 H55         5.9460    2.3010    4.2560 ha        1 MOL      0.086615
    130 H56         8.0900    1.6530    0.6710 ha        1 MOL      0.086615
    131 H57         7.9090    2.4790    5.4730 ha        1 MOL      0.118068
    132 H58        10.0840    1.3010    1.8870 ha        1 MOL      0.118068
    133 H59        10.1730    1.8540    4.4160 ha        1 MOL      0.100735
    134 N12         6.3050   -1.2160    1.6850 n         1 MOL      0.079034
    135 C45         7.4450   -2.0330    1.3860 c3        1 MOL      0.065426
    136 C46         7.2440   -2.9780    0.1890 c         1 MOL      0.218875
    137 O20         8.2140   -3.3890   -0.4760 o         1 MOL     -0.476646
    138 C47         7.9020   -2.7330    2.6690 c3        1 MOL     -0.247071
    139 C48         6.5780   -2.7190    3.4990 c3        1 MOL      0.089168
    140 C49         5.8400   -1.5050    3.0340 c3        1 MOL     -0.136513
    141 H60         8.2310   -1.3430    1.0750 h1        1 MOL      0.068721
    142 H61         8.2570   -3.7500    2.5100 hc        1 MOL      0.101745
    143 H62         8.6290   -2.1130    3.2000 hc        1 MOL      0.101745
    144 H63         5.9690   -3.5900    3.2720 hc        1 MOL     -0.000349
    145 H64         6.7680   -2.6280    4.5710 hc        1 MOL     -0.000349
    146 H65         4.7700   -1.7470    3.0090 h1        1 MOL      0.042889
    147 H66         6.0310   -0.6740    3.7130 h1        1 MOL      0.042889
    148 N13         5.9950   -3.4560    0.0380 n         1 MOL     -0.037709
    149 C50         5.8250   -4.5370   -0.8990 c3        1 MOL     -0.408176
    150 C51         5.9920   -4.1320   -2.3380 c         1 MOL      0.607529
    151 O21         6.5380   -4.8270   -3.1580 o         1 MOL     -0.546228
    152 C52         4.6290   -5.4600   -0.6810 c3        1 MOL      0.175112
    153 C53         3.3100   -4.7800   -0.9600 c3        1 MOL      0.064283
    154 C54         2.0970   -5.7550   -0.8480 c         1 MOL      0.644530
    155 O22         1.9900   -6.7110   -1.6470 o         1 MOL     -0.697443
    156 O23         1.2270   -5.6360    0.0460 o         1 MOL     -0.697443
    157 H67         5.3260   -3.1020    0.6990 hn        1 MOL      0.240186
    158 H68         6.5840   -5.3000   -0.6960 h1        1 MOL      0.158463
    159 H69         4.4710   -5.8880    0.3060 hc        1 MOL     -0.031965
    160 H70         4.7730   -6.3050   -1.3480 hc        1 MOL     -0.031965
    161 H71         3.3190   -4.2940   -1.9430 hc        1 MOL     -0.085309
    162 H72         3.2970   -4.0550   -0.1430 hc        1 MOL     -0.085309
    163 N14         5.5360   -2.9350   -2.7170 n         1 MOL     -0.264548
    164 C55         5.4010   -2.4920   -4.1200 c3        1 MOL     -0.032803
    165 H73         5.7650   -1.4690   -4.2140 h1        1 MOL      0.048110
    166 H74         5.9860   -3.1460   -4.7660 h1        1 MOL      0.048110
    167 H75         4.3530   -2.5320   -4.4150 h1        1 MOL      0.048110
    168 H76         5.0650   -2.3750   -2.0210 hn        1 MOL      0.241383
    169 Ca1        -0.7540   -4.1490    0.7900 Ca        1 MOL      1.802521
    170 O24         1.3450   -3.1080    2.0650 oh        1 MOL     -0.900042
    171 H77         1.7700   -3.1510    2.9170 ho        1 MOL      0.431209
    172 H78         1.9770   -2.6620    1.4970 ho        1 MOL      0.431209
    173 O25        -2.3490   -6.3380    0.5660 oh        1 MOL     -0.900042
    174 H79        -3.2930   -6.1900    0.5290 ho        1 MOL      0.431209
    175 H80        -2.2480   -7.2840    0.4530 ho        1 MOL      0.431209
    176 O26        -3.2650   -3.7940    0.0940 oh        1 MOL     -0.900042
    177 H81        -3.6350   -3.0970    0.6290 ho        1 MOL      0.431209
    178 H82        -4.0130   -4.1550   -0.3850 ho        1 MOL      0.431209
    179 O27        -0.6460   -5.6920    3.0750 oh        1 MOL     -0.900042
    180 H83        -0.9330   -6.5970    2.9950 ho        1 MOL      0.431209
    181 H84        -0.5480   -5.5590    4.0220 ho        1 MOL      0.431209
@<TRIPOS>BOND
     1    1    2 1   
     2    1    4 1   
     3    1    5 1   
     4    1    6 1   
     5    2    3 2   
     6    2    7 1   
     7    7    8 1   
     8    7   15 1   
     9    8    9 1   
    10    8   11 1   
    11    8   16 1   
    12    9   10 2   
    13    9   19 1   
    14   11   12 1   
    15   11   17 1   
    16   11   18 1   
    17   12   13 1   
    18   12   14 1   
    19   19   20 1   
    20   19   24 1   
    21   20   21 1   
    22   20   23 1   
    23   20   25 1   
    24   21   22 2   
    25   21   29 1   
    26   23   26 1   
    27   23   27 1   
    28   23   28 1   
    29   29   30 1   
    30   29   37 1   
    31   30   31 1   
    32   30   33 1   
    33   30   38 1   
    34   31   32 2   
    35   31   41 1   
    36   33   34 1   
    37   33   39 1   
    38   33   40 1   
    39   34   35 1   
    40   34   36 1   
    41   41   42 1   
    42   41   45 1   
    43   42   43 1   
    44   42   46 1   
    45   42   47 1   
    46   43   44 2   
    47   43   48 1   
    48   48   49 1   
    49   48   56 1   
    50   49   50 1   
    51   49   52 1   
    52   49   57 1   
    53   50   51 2   
    54   50   62 1   
    55   52   53 1   
    56   52   58 1   
    57   52   59 1   
    58   53   54 1   
    59   53   55 2   
    60   54   60 1   
    61   54   61 1   
    62   62   63 1   
    63   62   66 1   
    64   63   64 1   
    65   63   67 1   
    66   63   68 1   
    67   64   65 2   
    68   64   69 1   
    69   69   70 1   
    70   69   76 1   
    71   70   71 1   
    72   70   73 1   
    73   70   77 1   
    74   71   72 2   
    75   71   83 1   
    76   73   74 1   
    77   73   75 1   
    78   73   78 1   
    79   74   80 1   
    80   74   81 1   
    81   74   82 1   
    82   75   79 1   
    83   83   84 1   
    84   83   91 1   
    85   84   85 1   
    86   84   87 1   
    87   84   92 1   
    88   85   86 2   
    89   85  102 1   
    90   87   88 1   
    91   87   89 1   
    92   87   93 1   
    93   88   90 1   
    94   88   94 1   
    95   88   95 1   
    96   89   96 1   
    97   89   97 1   
    98   89   98 1   
    99   90   99 1   
   100   90  100 1   
   101   90  101 1   
   102  102  103 1   
   103  102  110 1   
   104  103  104 1   
   105  103  106 1   
   106  103  111 1   
   107  104  105 2   
   108  104  114 1   
   109  106  107 1   
   110  106  112 1   
   111  106  113 1   
   112  107  108 1   
   113  107  109 1   
   114  114  115 1   
   115  114  125 1   
   116  115  116 1   
   117  115  118 1   
   118  115  126 1   
   119  116  117 2   
   120  116  134 1   
   121  118  119 1   
   122  118  127 1   
   123  118  128 1   
   124  119  120 ar  
   125  119  121 ar  
   126  120  122 ar  
   127  120  129 1   
   128  121  123 ar  
   129  121  130 1   
   130  122  124 ar  
   131  122  131 1   
   132  123  124 ar  
   133  123  132 1   
   134  124  133 1   
   135  134  135 1   
   136  134  140 1   
   137  135  136 1   
   138  135  138 1   
   139  135  141 1   
   140  136  137 2   
   141  136  148 1   
   142  138  139 1   
   143  138  142 1   
   144  138  143 1   
   145  139  140 1   
   146  139  144 1   
   147  139  145 1   
   148  140  146 1   
   149  140  147 1   
   150  148  149 1   
   151  148  157 1   
   152  149  150 1   
   153  149  152 1   
   154  149  158 1   
   155  150  151 2   
   156  150  163 1   
   157  152  153 1   
   158  152  159 1   
   159  152  160 1   
   160  153  154 1   
   161  153  161 1   
   162  153  162 1   
   163  154  155 1   
   164  154  156 1   
   165  163  164 1   
   166  163  168 1   
   167  164  165 1   
   168  164  166 1   
   169  164  167 1   
   170  170  171 1   
   171  170  172 1   
   172  173  174 1   
   173  173  175 1   
   174  176  177 1   
   175  176  178 1   
   176  179  180 1   
   177  179  181 1   
@<TRIPOS>SUBSTRUCTURE
     1 MOL         1 TEMP              0 ****  ****    0 ROOT
