@<TRIPOS>MOLECULE
MOL
  192   187     1     0     0
SMALL
resp


@<TRIPOS>ATOM
      1 C1          0.9140    4.4820    3.3230 c3        1 MOL     -0.369099
      2 C2          0.1390    4.4390    2.0420 c         1 MOL      0.720360
      3 O1         -0.5980    3.4760    1.7940 o         1 MOL     -0.552138
      4 H1          0.9320    3.4880    3.7700 hc        1 MOL      0.089113
      5 H2          1.9350    4.8080    3.1200 hc        1 MOL      0.089113
      6 H3          0.4390    5.1810    4.0120 hc        1 MOL      0.089113
      7 N1          0.3360    5.4260    1.1500 n         1 MOL     -0.433318
      8 C3         -0.2550    5.5000   -0.2300 c3        1 MOL      0.061471
      9 C4         -1.7950    5.2600   -0.3710 c         1 MOL      0.565121
     10 O2         -2.2100    4.5170   -1.2310 o         1 MOL     -0.509229
     11 C5          0.5990    4.6050   -1.2220 c3        1 MOL     -0.197468
     12 C6          2.0490    4.8400   -0.9910 c         1 MOL      0.921859
     13 O3          2.7880    3.9520   -0.4310 o         1 MOL     -0.872620
     14 O4          2.5640    5.9290   -1.3390 o         1 MOL     -0.872620
     15 H4          0.9210    6.2000    1.4310 hn        1 MOL      0.207226
     16 H5         -0.1390    6.4950   -0.6610 h1        1 MOL      0.053790
     17 H6          0.3610    4.9320   -2.2320 hc        1 MOL      0.058592
     18 H7          0.3010    3.5910   -0.9580 hc        1 MOL      0.058592
     19 N2         -2.6280    5.6680    0.6250 n         1 MOL     -0.431143
     20 C7         -4.0420    5.2420    0.8350 c3        1 MOL      0.154590
     21 C8         -4.9080    6.3300    0.1770 c         1 MOL      0.550977
     22 O5         -4.5290    7.4900    0.1040 o         1 MOL     -0.604705
     23 C9         -4.4060    4.9770    2.2980 c3        1 MOL     -0.053684
     24 C10        -4.1230    6.2060    3.2450 c3        1 MOL      0.101757
     25 C11        -3.7570    3.6250    2.7880 c3        1 MOL      0.048948
     26 C12        -4.7620    6.0810    4.6140 c3        1 MOL     -0.193593
     27 H8         -2.1990    6.2630    1.3140 hn        1 MOL      0.174218
     28 H9         -4.2840    4.3110    0.3300 h1        1 MOL      0.050131
     29 H10        -5.4890    4.8800    2.4110 hc        1 MOL      0.080913
     30 H11        -4.6140    7.0630    2.7880 hc        1 MOL     -0.009785
     31 H12        -3.0630    6.4740    3.2860 hc        1 MOL     -0.009785
     32 H13        -2.6950    3.7300    3.0170 hc        1 MOL     -0.013935
     33 H14        -4.2460    3.2740    3.7040 hc        1 MOL     -0.013935
     34 H15        -3.9690    2.8110    2.1010 hc        1 MOL     -0.013935
     35 H16        -5.6620    5.4680    4.5350 hc        1 MOL      0.033599
     36 H17        -4.0530    5.5710    5.2750 hc        1 MOL      0.033599
     37 H18        -4.9780    7.0280    5.1030 hc        1 MOL      0.033599
     38 N3         -6.0220    6.0250   -0.4680 n         1 MOL     -0.585854
     39 C13        -6.6880    4.7200   -0.5920 c3        1 MOL      0.301712
     40 C14        -6.1160    4.0810   -1.8520 c         1 MOL      0.554469
     41 O6         -5.5850    4.6930   -2.8100 o         1 MOL     -0.584394
     42 C15        -8.2270    4.9420   -0.5240 c3        1 MOL     -0.323098
     43 C16        -9.0490    3.6450   -0.5940 c         1 MOL      0.753861
     44 O7         -8.5010    2.5790   -0.2260 o         1 MOL     -0.714833
     45 O8        -10.2400    3.7320   -1.0450 o         1 MOL     -0.714833
     46 H19        -6.5620    6.8010   -0.8340 hn        1 MOL      0.314895
     47 H20        -6.4310    4.1350    0.2860 h1        1 MOL     -0.053494
     48 H21        -8.5670    5.5040   -1.3900 hc        1 MOL      0.050697
     49 H22        -8.4580    5.4110    0.4320 hc        1 MOL      0.050697
     50 N4         -6.3520    2.8070   -1.9800 n         1 MOL     -0.365290
     51 C17        -5.6780    1.8400   -2.9510 c3        1 MOL     -0.066521
     52 C18        -6.3410    0.4540   -3.0750 c         1 MOL      0.541426
     53 O9         -7.5530    0.3860   -2.9310 o         1 MOL     -0.502876
     54 H23        -6.9820    2.3700   -1.3170 hn        1 MOL      0.228937
     55 H24        -4.6480    1.7210   -2.6350 h1        1 MOL      0.074443
     56 H25        -5.6680    2.3260   -3.9250 h1        1 MOL      0.074443
     57 N5         -5.5180   -0.5860   -3.2930 n         1 MOL     -0.452889
     58 C19        -5.9360   -1.9670   -3.4230 c3        1 MOL      0.141035
     59 C20        -6.7500   -2.4550   -2.2270 c         1 MOL      0.311005
     60 O10        -7.4510   -3.4520   -2.2430 o         1 MOL     -0.518513
     61 C21        -4.7460   -2.9180   -3.5850 c3        1 MOL     -0.131595
     62 C22        -3.4930   -2.4210   -2.8540 c         1 MOL      0.740240
     63 O11        -2.6570   -1.6470   -3.3300 o         1 MOL     -0.691138
     64 O12        -3.1940   -2.9470   -1.7580 o         1 MOL     -0.691138
     65 H26        -4.5490   -0.3290   -3.3940 hn        1 MOL      0.210554
     66 H27        -6.6100   -2.0820   -4.2710 h1        1 MOL      0.053452
     67 H28        -4.4990   -3.0190   -4.6390 hc        1 MOL      0.011573
     68 H29        -5.0570   -3.9290   -3.3610 hc        1 MOL      0.011573
     69 N6         -6.4990   -1.8470   -1.0340 n         1 MOL     -0.047518
     70 C23        -6.8940   -2.2950    0.2850 c3        1 MOL     -0.440705
     71 C24        -6.1420   -3.5250    0.8620 c         1 MOL      0.611186
     72 O13        -6.4150   -3.9030    1.9900 o         1 MOL     -0.617267
     73 H30        -5.8500   -1.0880   -1.1510 hn        1 MOL      0.194751
     74 H31        -7.9440   -2.5300    0.1090 h1        1 MOL      0.180028
     75 H32        -6.8910   -1.4570    0.9860 h1        1 MOL      0.180028
     76 N7         -5.2190   -4.1570    0.1380 n         1 MOL     -0.183864
     77 C25        -4.3910   -5.3830    0.4700 c3        1 MOL      0.081069
     78 C26        -3.7700   -5.5050    1.8570 c         1 MOL      0.552213
     79 O14        -3.3710   -6.6070    2.3020 o         1 MOL     -0.509878
     80 C27        -4.9900   -6.6690   -0.0950 c3        1 MOL      0.218037
     81 C28        -4.9610   -6.8910   -1.6060 c3        1 MOL     -0.067998
     82 C29        -4.8030   -8.3820   -2.0780 c         1 MOL      0.468898
     83 N8         -5.0490   -8.7120   -3.3720 n         1 MOL     -0.748924
     84 O15        -4.0500   -9.1080   -1.4580 o         1 MOL     -0.478670
     85 H33        -4.9510   -3.6120   -0.6660 hn        1 MOL      0.011248
     86 H34        -3.5550   -5.2920   -0.2290 h1        1 MOL      0.086467
     87 H35        -6.0510   -6.7700    0.1740 hc        1 MOL     -0.081761
     88 H36        -4.3890   -7.4450    0.3630 hc        1 MOL     -0.081761
     89 H37        -4.0860   -6.3950   -2.0300 hc        1 MOL      0.053349
     90 H38        -5.7460   -6.3470   -2.1460 hc        1 MOL      0.053349
     91 H39        -5.4730   -8.0740   -4.0310 hn        1 MOL      0.339302
     92 H40        -4.8740   -9.6690   -3.6310 hn        1 MOL      0.339302
     93 N9         -3.5490   -4.3630    2.4950 n         1 MOL     -0.604280
     94 C30        -2.9980   -4.2780    3.9100 c3        1 MOL      0.059603
     95 C31        -1.7340   -3.4420    4.0660 c         1 MOL      0.361269
     96 O16        -1.0890   -3.5980    5.1470 o         1 MOL     -0.580004
     97 C32        -4.0270   -3.6470    4.9230 c3        1 MOL      0.278516
     98 C33        -4.3210   -2.2290    4.3770 c3        1 MOL     -0.338902
     99 C34        -5.2520   -4.5360    5.1590 c3        1 MOL     -0.338902
    100 H41        -3.7620   -3.4540    2.1030 hn        1 MOL      0.355195
    101 H42        -2.6950   -5.2560    4.2990 h1        1 MOL      0.098335
    102 H43        -3.6680   -3.4780    5.9300 hc        1 MOL     -0.017292
    103 H44        -3.4410   -1.5880    4.2940 hc        1 MOL      0.079003
    104 H45        -4.6860   -2.3280    3.3550 hc        1 MOL      0.079003
    105 H46        -4.9980   -1.7660    5.0950 hc        1 MOL      0.079003
    106 H47        -5.6420   -5.0090    4.2540 hc        1 MOL      0.079003
    107 H48        -4.9390   -5.3900    5.7590 hc        1 MOL      0.079003
    108 H49        -6.0170   -3.9240    5.6270 hc        1 MOL      0.079003
    109 N10        -1.3540   -2.6300    3.0690 n         1 MOL     -0.095365
    110 C35        -0.1280   -1.8820    2.8040 c3        1 MOL      0.111559
    111 C36         0.5610   -2.7280    1.6770 c         1 MOL      0.515662
    112 O17        -0.0330   -3.5690    0.9400 o         1 MOL     -0.501093
    113 C37        -0.5470   -0.3540    2.4200 c3        1 MOL     -0.541039
    114 C38         0.6210    0.4300    1.8620 c         1 MOL      0.710547
    115 N11         0.6780    0.7430    0.5590 n         1 MOL     -0.598170
    116 O18         1.5770    0.6270    2.5530 o         1 MOL     -0.565650
    117 H50        -1.9570   -2.6990    2.2710 hn        1 MOL      0.155476
    118 H51         0.5860   -1.9190    3.6260 h1        1 MOL      0.085108
    119 H52        -1.0210    0.0430    3.3180 hc        1 MOL      0.155613
    120 H53        -1.2860   -0.3770    1.6160 hc        1 MOL      0.155613
    121 H54        -0.0730    0.4440   -0.0530 hn        1 MOL      0.333874
    122 H55         1.4990    1.1620    0.1460 hn        1 MOL      0.333874
    123 N12         1.8830   -2.4370    1.4550 n         1 MOL     -0.610367
    124 C39         2.6310   -2.8520    0.2460 c3        1 MOL      0.283861
    125 C40         4.1730   -2.6730    0.5040 c         1 MOL      0.632995
    126 O19         4.5020   -1.7790    1.3230 o         1 MOL     -0.568063
    127 C41         2.1790   -1.9520   -0.8890 c3        1 MOL     -0.186439
    128 C42         2.8790   -2.1730   -2.2090 ca        1 MOL     -0.022442
    129 C43         3.8050   -1.2810   -2.7090 ca        1 MOL     -0.083077
    130 C44         2.7270   -3.4590   -2.7670 ca        1 MOL     -0.083077
    131 C45         4.7340   -1.6690   -3.6780 ca        1 MOL     -0.377352
    132 C46         3.7020   -3.9080   -3.6690 ca        1 MOL     -0.377352
    133 C47         4.6620   -3.0180   -4.1760 ca        1 MOL      0.452497
    134 O20         5.5490   -3.3660   -5.1680 oh        1 MOL     -0.524391
    135 H56         2.2920   -1.6980    2.0030 hn        1 MOL      0.297140
    136 H57         2.3920   -3.8840    0.0230 h1        1 MOL      0.035495
    137 H58         2.3210   -0.9560   -0.4550 hc        1 MOL      0.059960
    138 H59         1.1120   -2.0800   -1.0970 hc        1 MOL      0.059960
    139 H60         3.9290   -0.3210   -2.2280 ha        1 MOL      0.153430
    140 H61         1.9570   -4.1180   -2.4300 ha        1 MOL      0.153430
    141 H62         5.5010   -1.0050   -4.0450 ha        1 MOL      0.173420
    142 H63         3.6030   -4.9030   -4.0860 ha        1 MOL      0.173420
    143 H64         6.1760   -2.6780   -5.4060 ho        1 MOL      0.368361
    144 N13         5.1180   -3.3200   -0.2520 n         1 MOL     -0.891436
    145 C48         6.5330   -3.1420    0.0070 c3        1 MOL      0.460922
    146 C49         7.2480   -2.5640   -1.2010 c         1 MOL      0.598268
    147 O21         7.2820   -3.1920   -2.2710 o         1 MOL     -0.553643
    148 C50         7.1670   -4.5100    0.4220 c3        1 MOL     -0.082942
    149 C51         8.5980   -4.3660    1.0100 c3        1 MOL     -0.261263
    150 C52         9.4360   -5.6070    0.9840 c         1 MOL      0.765816
    151 O22         9.9380   -5.9770    2.0490 o         1 MOL     -0.729341
    152 O23         9.6270   -6.2190   -0.0820 o         1 MOL     -0.729341
    153 H65         4.8380   -3.8160   -1.0840 hn        1 MOL      0.405715
    154 H66         6.6120   -2.3620    0.7530 h1        1 MOL     -0.025065
    155 H67         7.1730   -5.1940   -0.4360 hc        1 MOL      0.035643
    156 H68         6.5680   -5.0270    1.1710 hc        1 MOL      0.035643
    157 H69         8.4640   -3.9750    2.0220 hc        1 MOL      0.064511
    158 H70         9.1090   -3.6420    0.3730 hc        1 MOL      0.064511
    159 N14         7.8020   -1.3160   -1.1220 n         1 MOL     -0.566780
    160 C53         7.4230   -0.3020   -0.1260 c3        1 MOL      0.004261
    161 C54         8.0410   -0.4980    1.3110 c         1 MOL      0.522414
    162 O24         9.0890   -1.0650    1.5740 o         1 MOL     -0.515213
    163 C55         7.9790    1.0270   -0.8410 c3        1 MOL     -0.438473
    164 C56         7.8910    2.2620    0.0800 c3        1 MOL     -0.255623
    165 C57         7.9900    3.4920   -0.7810 c         1 MOL      0.740852
    166 O25         9.0900    3.9090   -1.2160 o         1 MOL     -0.717773
    167 O26         6.9510    4.1440   -0.9850 o         1 MOL     -0.717773
    168 H71         8.3080   -1.0010   -1.9340 hn        1 MOL      0.301820
    169 H72         6.3440   -0.2370   -0.0690 h1        1 MOL      0.093018
    170 H73         7.3520    1.2860   -1.6940 hc        1 MOL      0.183935
    171 H74         9.0170    0.8150   -1.1220 hc        1 MOL      0.183935
    172 H75         8.7260    2.1850    0.7740 hc        1 MOL      0.082106
    173 H76         6.9750    2.2840    0.6760 hc        1 MOL      0.082106
    174 N15         7.2990   -0.1060    2.3260 n         1 MOL     -0.241081
    175 C58         7.7470   -0.1640    3.7130 c3        1 MOL     -0.423843
    176 H77         7.6330   -1.1810    4.0880 h1        1 MOL      0.155763
    177 H78         8.7950    0.1290    3.7690 h1        1 MOL      0.155763
    178 H79         7.1460    0.5140    4.3180 h1        1 MOL      0.155763
    179 H80         6.3470    0.2040    2.1630 hn        1 MOL      0.261795
    180 Ca1         4.9260    5.5140   -0.7580 Ca        1 MOL      1.762345
    181 O27         6.6300    7.0510    0.4710 oh        1 MOL     -0.888267
    182 H81         6.7180    7.9990    0.5470 ho        1 MOL      0.425708
    183 H82         7.4170    6.7080    0.8960 ho        1 MOL      0.425708
    184 O28         6.2800    7.2400   -2.4840 oh        1 MOL     -0.888267
    185 H83         6.2890    8.1990   -2.4390 ho        1 MOL      0.425708
    186 H84         6.3610    7.0430   -3.4210 ho        1 MOL      0.425708
    187 O29         5.1760    4.1350    1.5200 oh        1 MOL     -0.888267
    188 H85         5.6840    3.9980    2.3120 ho        1 MOL      0.425708
    189 H86         4.6510    3.3350    1.4320 ho        1 MOL      0.425708
    190 O30         4.4630    4.2790   -2.9930 oh        1 MOL     -0.888267
    191 H87         5.1630    4.2180   -3.6410 ho        1 MOL      0.425708
    192 H88         3.8770    3.5370   -3.1940 ho        1 MOL      0.425708
@<TRIPOS>BOND
     1    1    2 1   
     2    1    4 1   
     3    1    5 1   
     4    1    6 1   
     5    2    3 2   
     6    2    7 1   
     7    7    8 1   
     8    7   15 1   
     9    8    9 1   
    10    8   11 1   
    11    8   16 1   
    12    9   10 2   
    13    9   19 1   
    14   11   12 1   
    15   11   17 1   
    16   11   18 1   
    17   12   13 1   
    18   12   14 1   
    19   19   20 1   
    20   19   27 1   
    21   20   21 1   
    22   20   23 1   
    23   20   28 1   
    24   21   22 2   
    25   21   38 1   
    26   23   24 1   
    27   23   25 1   
    28   23   29 1   
    29   24   26 1   
    30   24   30 1   
    31   24   31 1   
    32   25   32 1   
    33   25   33 1   
    34   25   34 1   
    35   26   35 1   
    36   26   36 1   
    37   26   37 1   
    38   38   39 1   
    39   38   46 1   
    40   39   40 1   
    41   39   42 1   
    42   39   47 1   
    43   40   41 2   
    44   40   50 1   
    45   42   43 1   
    46   42   48 1   
    47   42   49 1   
    48   43   44 1   
    49   43   45 1   
    50   50   51 1   
    51   50   54 1   
    52   51   52 1   
    53   51   55 1   
    54   51   56 1   
    55   52   53 2   
    56   52   57 1   
    57   57   58 1   
    58   57   65 1   
    59   58   59 1   
    60   58   61 1   
    61   58   66 1   
    62   59   60 2   
    63   59   69 1   
    64   61   62 1   
    65   61   67 1   
    66   61   68 1   
    67   62   63 1   
    68   62   64 1   
    69   69   70 1   
    70   69   73 1   
    71   70   71 1   
    72   70   74 1   
    73   70   75 1   
    74   71   72 2   
    75   71   76 1   
    76   76   77 1   
    77   76   85 1   
    78   77   78 1   
    79   77   80 1   
    80   77   86 1   
    81   78   79 2   
    82   78   93 1   
    83   80   81 1   
    84   80   87 1   
    85   80   88 1   
    86   81   82 1   
    87   81   89 1   
    88   81   90 1   
    89   82   83 1   
    90   82   84 2   
    91   83   91 1   
    92   83   92 1   
    93   93   94 1   
    94   93  100 1   
    95   94   95 1   
    96   94   97 1   
    97   94  101 1   
    98   95   96 2   
    99   95  109 1   
   100   97   98 1   
   101   97   99 1   
   102   97  102 1   
   103   98  103 1   
   104   98  104 1   
   105   98  105 1   
   106   99  106 1   
   107   99  107 1   
   108   99  108 1   
   109  109  110 1   
   110  109  117 1   
   111  110  111 1   
   112  110  113 1   
   113  110  118 1   
   114  111  112 2   
   115  111  123 1   
   116  113  114 1   
   117  113  119 1   
   118  113  120 1   
   119  114  115 1   
   120  114  116 2   
   121  115  121 1   
   122  115  122 1   
   123  123  124 1   
   124  123  135 1   
   125  124  125 1   
   126  124  127 1   
   127  124  136 1   
   128  125  126 2   
   129  125  144 1   
   130  127  128 1   
   131  127  137 1   
   132  127  138 1   
   133  128  129 ar  
   134  128  130 ar  
   135  129  131 ar  
   136  129  139 1   
   137  130  132 ar  
   138  130  140 1   
   139  131  133 ar  
   140  131  141 1   
   141  132  133 ar  
   142  132  142 1   
   143  133  134 1   
   144  134  143 1   
   145  144  145 1   
   146  144  153 1   
   147  145  146 1   
   148  145  148 1   
   149  145  154 1   
   150  146  147 2   
   151  146  159 1   
   152  148  149 1   
   153  148  155 1   
   154  148  156 1   
   155  149  150 1   
   156  149  157 1   
   157  149  158 1   
   158  150  151 1   
   159  150  152 1   
   160  159  160 1   
   161  159  168 1   
   162  160  161 1   
   163  160  163 1   
   164  160  169 1   
   165  161  162 2   
   166  161  174 1   
   167  163  164 1   
   168  163  170 1   
   169  163  171 1   
   170  164  165 1   
   171  164  172 1   
   172  164  173 1   
   173  165  166 1   
   174  165  167 1   
   175  174  175 1   
   176  174  179 1   
   177  175  176 1   
   178  175  177 1   
   179  175  178 1   
   180  181  182 1   
   181  181  183 1   
   182  184  185 1   
   183  184  186 1   
   184  187  188 1   
   185  187  189 1   
   186  190  191 1   
   187  190  192 1   
@<TRIPOS>SUBSTRUCTURE
     1 MOL         1 TEMP              0 ****  ****    0 ROOT
