@<TRIPOS>MOLECULE
MOL
  188   182     1     0     0
SMALL
resp


@<TRIPOS>ATOM
      1 C1          0.7620    0.7350    2.9110 c3        1 MOL     -0.309197
      2 C2          1.9670    0.3050    2.0300 c         1 MOL      0.646909
      3 O1          2.2250    0.9900    1.0370 o         1 MOL     -0.553846
      4 H1         -0.1520    0.7030    2.3170 hc        1 MOL      0.088249
      5 H2          0.6690    0.0550    3.7570 hc        1 MOL      0.088249
      6 H3          0.9220    1.7500    3.2750 hc        1 MOL      0.088249
      7 N1          2.7680   -0.7200    2.4120 n         1 MOL     -0.453070
      8 C3          4.0560   -1.0710    1.7990 c3        1 MOL      0.011022
      9 C4          4.1050   -2.3300    0.9200 c         1 MOL      0.411964
     10 O2          5.0500   -2.6930    0.1420 o         1 MOL     -0.414066
     11 C5          5.1290   -1.1250    2.8680 c3        1 MOL     -0.059993
     12 C6          4.9740   -2.0990    4.0810 c         1 MOL      0.687658
     13 O3          3.8920   -2.3590    4.6180 o         1 MOL     -0.703874
     14 O4          6.0060   -2.6900    4.4580 o         1 MOL     -0.703874
     15 H4          2.6040   -1.2180    3.2720 hn        1 MOL      0.256859
     16 H5          4.3360   -0.3240    1.0610 h1        1 MOL      0.087181
     17 H6          5.2980   -0.1040    3.2180 hc        1 MOL      0.037888
     18 H7          6.0170   -1.4560    2.3300 hc        1 MOL      0.037888
     19 N2          3.1040   -3.2000    1.1320 n         1 MOL     -0.321277
     20 C7          2.8830   -4.6200    0.6430 c3        1 MOL     -0.044078
     21 C8          3.0740   -4.9290   -0.8820 c         1 MOL      0.356477
     22 O5          3.2290   -6.0830   -1.3980 o         1 MOL     -0.475947
     23 C9          3.5320   -5.6660    1.6510 c3        1 MOL     -0.144486
     24 C10         3.0820   -5.5520    3.0650 c3        1 MOL      0.094101
     25 C11         3.9780   -6.2850    4.1030 c3        1 MOL     -0.030664
     26 C12         3.5930   -5.8700    5.5330 c3        1 MOL     -0.009533
     27 N3          4.6620   -4.9140    5.9340 n4        1 MOL     -0.231113
     28 H8          2.4000   -2.7970    1.7320 hn        1 MOL      0.207970
     29 H9          1.8140   -4.8280    0.7240 h1        1 MOL      0.125411
     30 H10         4.6160   -5.6940    1.5260 hc        1 MOL      0.068660
     31 H11         3.3280   -6.7090    1.4150 hc        1 MOL      0.068660
     32 H12         2.1060   -6.0190    3.1970 hc        1 MOL     -0.005586
     33 H13         2.8800   -4.5560    3.4370 hc        1 MOL     -0.005586
     34 H14         5.0520   -6.2190    3.9680 hc        1 MOL      0.035307
     35 H15         3.9380   -7.3700    4.0020 hc        1 MOL      0.035307
     36 H16         3.7310   -6.7150    6.2160 hx        1 MOL      0.065199
     37 H17         2.5750   -5.4880    5.5920 hx        1 MOL      0.065199
     38 H18         4.4570   -4.4690    6.8150 hn        1 MOL      0.284139
     39 H19         5.5180   -5.4020    6.1400 hn        1 MOL      0.284139
     40 H20         4.8090   -4.1710    5.2640 hn        1 MOL      0.284139
     41 N4          3.0160   -3.7790   -1.5680 n         1 MOL     -0.049657
     42 C13         2.9770   -3.6830   -2.9940 c3        1 MOL     -0.207953
     43 C14         4.1470   -2.8250   -3.5500 c         1 MOL      0.588769
     44 O6          4.2120   -2.3380   -4.6570 o         1 MOL     -0.559750
     45 C15         1.5820   -3.2190   -3.5540 c3        1 MOL      0.092991
     46 C16         0.3590   -3.7720   -2.9180 c         1 MOL      0.449845
     47 O7         -0.3990   -3.0300   -2.2800 o         1 MOL     -0.675704
     48 O8          0.1790   -4.9920   -3.0380 o         1 MOL     -0.675704
     49 H21         2.9820   -2.9060   -1.0470 hn        1 MOL      0.184242
     50 H22         3.2450   -4.6670   -3.3970 h1        1 MOL      0.115961
     51 H23         1.4980   -3.2940   -4.6370 hc        1 MOL      0.013438
     52 H24         1.5090   -2.1250   -3.4950 hc        1 MOL      0.013438
     53 N5          5.1760   -2.5580   -2.6930 n         1 MOL     -0.332752
     54 C17         6.0790   -1.4560   -2.8340 c3        1 MOL     -0.066685
     55 C18         7.2300   -1.4580   -1.7430 c         1 MOL      0.583846
     56 O9          7.7380   -2.4980   -1.4910 o         1 MOL     -0.525556
     57 H25         5.1320   -2.9250   -1.7440 hn        1 MOL      0.162077
     58 H26         5.5210   -0.5260   -2.7420 h1        1 MOL      0.078631
     59 H27         6.5720   -1.5300   -3.8050 h1        1 MOL      0.078631
     60 N6          7.6870   -0.3960   -1.0310 n         1 MOL     -0.546230
     61 C19         7.2800    1.0270   -1.2470 c3        1 MOL      0.268186
     62 C20         7.1820    1.8500    0.0720 c         1 MOL      0.358154
     63 O10         8.2000    1.9610    0.7750 o         1 MOL     -0.509700
     64 C21         8.1360    1.6670   -2.2860 c3        1 MOL     -0.497837
     65 C22         7.6830    2.9420   -2.9880 c         1 MOL      0.747773
     66 N7          7.8730    4.1630   -2.4860 n         1 MOL     -0.840440
     67 O11         6.9800    2.9130   -3.9420 o         1 MOL     -0.561615
     68 H28         8.4090   -0.6050   -0.3540 hn        1 MOL      0.335633
     69 H29         6.2470    0.9350   -1.5570 h1        1 MOL      0.030324
     70 H30         8.2600    0.8610   -3.0100 hc        1 MOL      0.145215
     71 H31         9.1480    1.9090   -1.9470 hc        1 MOL      0.145215
     72 H32         8.3570    4.3410   -1.6200 hn        1 MOL      0.370964
     73 H33         7.5730    4.9900   -3.0030 hn        1 MOL      0.370964
     74 N8          6.0130    2.4860    0.3630 n         1 MOL     -0.355828
     75 C23         4.7310    2.4120   -0.4060 c3        1 MOL     -0.190447
     76 C24         3.9350    3.6470    0.1000 c         1 MOL      0.747366
     77 O12         4.4380    4.4440    0.8680 o         1 MOL     -0.570268
     78 H34         6.0160    3.0490    1.1980 hn        1 MOL      0.285777
     79 H35         4.1920    1.4890   -0.1620 h1        1 MOL      0.110921
     80 H36         4.9120    2.4970   -1.4790 h1        1 MOL      0.110921
     81 N9          2.7350    3.8990   -0.4170 n         1 MOL     -0.564782
     82 C25         1.8600    4.9910   -0.1030 c3        1 MOL      0.062467
     83 C26         0.4570    4.4380    0.0760 c         1 MOL      0.659121
     84 O13         0.1180    3.3760   -0.4990 o         1 MOL     -0.522224
     85 C27         1.9230    6.1300   -1.1900 c3        1 MOL     -0.198472
     86 C28         1.4120    7.5030   -0.8330 ca        1 MOL      0.035983
     87 C29         0.1510    7.9090   -1.3410 ca        1 MOL     -0.123026
     88 C30         2.0820    8.3520    0.1410 ca        1 MOL     -0.123026
     89 C31        -0.4010    9.1000   -0.9000 ca        1 MOL     -0.303852
     90 C32         1.5830    9.6500    0.4730 ca        1 MOL     -0.303852
     91 C33         0.2650    9.9300    0.0200 ca        1 MOL      0.385557
     92 O14        -0.4000   10.9300    0.6420 oh        1 MOL     -0.512243
     93 H37         2.3380    3.2900   -1.1230 hn        1 MOL      0.293674
     94 H38         2.1720    5.2680    0.9170 h1        1 MOL      0.054320
     95 H39         1.5410    5.7040   -2.1220 hc        1 MOL      0.104882
     96 H40         2.9690    6.3170   -1.4430 hc        1 MOL      0.104882
     97 H41        -0.3440    7.2970   -2.0790 ha        1 MOL      0.133212
     98 H42         2.9630    7.9650    0.6410 ha        1 MOL      0.133212
     99 H43        -1.4460    9.2870   -1.1150 ha        1 MOL      0.156003
    100 H44         2.1080   10.2720    1.1900 ha        1 MOL      0.156003
    101 H45         0.1190   11.2870    1.3660 ho        1 MOL      0.371567
    102 N10        -0.3490    5.1800    0.8450 n         1 MOL     -0.473458
    103 C34        -1.7550    4.8190    1.0750 c3        1 MOL     -0.283778
    104 C35        -2.6940    4.8040   -0.1800 c         1 MOL      0.556464
    105 O15        -2.5180    5.5840   -1.1280 o         1 MOL     -0.483178
    106 C36        -2.3730    5.5900    2.2370 c3        1 MOL      0.331870
    107 C37        -1.9570    5.0940    3.6670 c3        1 MOL      0.080286
    108 C38        -2.0450    7.1340    2.1480 c3        1 MOL      0.005496
    109 C39        -3.0710    5.4030    4.7080 c3        1 MOL     -0.420172
    110 H46        -0.0100    6.0220    1.2890 hn        1 MOL      0.284466
    111 H47        -1.6760    3.7980    1.4490 h1        1 MOL      0.091893
    112 H48        -3.4550    5.4120    2.2700 hc        1 MOL     -0.052606
    113 H49        -0.9470    5.3870    3.9580 hc        1 MOL     -0.003809
    114 H50        -1.9170    4.0040    3.7220 hc        1 MOL     -0.003809
    115 H51        -2.2560    7.5930    1.1790 hc        1 MOL     -0.008761
    116 H52        -2.7500    7.6220    2.8150 hc        1 MOL     -0.008761
    117 H53        -1.0030    7.2420    2.4440 hc        1 MOL     -0.008761
    118 H54        -3.1860    6.4920    4.7180 hc        1 MOL      0.105065
    119 H55        -3.9020    4.7760    4.3850 hc        1 MOL      0.105065
    120 H56        -2.8080    4.9840    5.6740 hc        1 MOL      0.105065
    121 N11        -3.6770    3.9330   -0.1190 n         1 MOL     -0.274505
    122 C40        -4.6700    3.7510   -1.1210 c3        1 MOL     -0.058322
    123 C41        -5.0920    2.2870   -1.4110 c         1 MOL      0.664391
    124 O16        -4.7260    1.4270   -0.6510 o         1 MOL     -0.478592
    125 C42        -5.9490    4.6640   -0.8560 c3        1 MOL      0.102122
    126 O17        -6.5000    4.2490    0.4090 oh        1 MOL     -0.614204
    127 H57        -3.5860    3.1390    0.5030 hn        1 MOL      0.230748
    128 H58        -4.3400    4.1280   -2.0900 h1        1 MOL      0.042560
    129 H59        -6.6840    4.6280   -1.6550 h1        1 MOL      0.038900
    130 H60        -5.6450    5.6920   -0.6740 h1        1 MOL      0.038900
    131 H61        -7.2280    4.8220    0.6770 ho        1 MOL      0.412119
    132 N12        -5.7140    2.0870   -2.6070 n         1 MOL     -0.520193
    133 C43        -6.0460    0.7580   -3.2060 c3        1 MOL      0.112903
    134 C44        -6.9770   -0.0950   -2.2960 c         1 MOL      0.452481
    135 O18        -7.0930   -1.2540   -2.5170 o         1 MOL     -0.479786
    136 C45        -4.7720    0.0730   -3.6300 c3        1 MOL     -0.288896
    137 H62        -5.9580    2.8750   -3.1890 hn        1 MOL      0.303819
    138 H63        -6.6470    0.9790   -4.0980 h1        1 MOL      0.075558
    139 H64        -4.3320   -0.3130   -2.7070 hc        1 MOL      0.099035
    140 H65        -4.9070   -0.8580   -4.1800 hc        1 MOL      0.099035
    141 H66        -4.1240    0.7910   -4.1210 hc        1 MOL      0.099035
    142 N13        -7.6160    0.5700   -1.2830 n         1 MOL     -0.490300
    143 C46        -8.5180   -0.0070   -0.2560 c3        1 MOL      0.397302
    144 C47        -7.8620   -1.1150    0.5400 c         1 MOL      0.228715
    145 O19        -8.4680   -2.1470    0.6310 o         1 MOL     -0.436398
    146 C48        -9.9150   -0.4390   -1.0330 c3        1 MOL     -0.427419
    147 H67        -7.6840    1.5700   -1.3710 hn        1 MOL      0.233315
    148 H68        -8.6730    0.7830    0.4740 h1        1 MOL     -0.018227
    149 H69       -10.6350   -0.4560   -0.2120 hc        1 MOL      0.119482
    150 H70       -10.2580    0.3570   -1.6880 hc        1 MOL      0.119482
    151 H71        -9.7290   -1.4330   -1.4430 hc        1 MOL      0.119482
    152 N14        -6.5340   -0.9660    0.8510 n         1 MOL     -0.024536
    153 C49        -5.6670   -2.0450    1.3990 c3        1 MOL     -0.261824
    154 C50        -6.3700   -2.6600    2.6620 c         1 MOL      0.521726
    155 O20        -6.5050   -3.8530    2.8240 o         1 MOL     -0.510674
    156 C51        -4.2520   -1.4800    1.7200 c3        1 MOL      0.023846
    157 C52        -3.1880   -2.5640    2.0030 c3        1 MOL     -0.005939
    158 C53        -3.0600   -3.3600    0.7260 c         1 MOL      0.694016
    159 O21        -2.5140   -2.7690   -0.2490 o         1 MOL     -0.747159
    160 O22        -3.4070   -4.5640    0.6620 o         1 MOL     -0.747159
    161 H72        -6.1160   -0.0560    0.7310 hn        1 MOL      0.102078
    162 H73        -5.4950   -2.7510    0.5840 h1        1 MOL      0.174260
    163 H74        -4.3760   -0.9050    2.6330 hc        1 MOL      0.020393
    164 H75        -3.8790   -0.8880    0.8820 hc        1 MOL      0.020393
    165 H76        -3.4180   -3.2050    2.8430 hc        1 MOL     -0.012313
    166 H77        -2.2440   -2.0860    2.2680 hc        1 MOL     -0.012313
    167 N15        -6.9990   -1.7740    3.4520 n         1 MOL     -0.240294
    168 C54        -7.8210   -2.0140    4.6910 c3        1 MOL     -0.321326
    169 H78        -8.8780   -2.0450    4.4250 h1        1 MOL      0.134812
    170 H79        -7.5330   -2.9650    5.1390 h1        1 MOL      0.134812
    171 H80        -7.6490   -1.2080    5.4040 h1        1 MOL      0.134812
    172 H81        -6.9940   -0.8340    3.0730 hn        1 MOL      0.184497
    173 Ca1        -2.2410   -4.8850   -1.7850 Ca        1 MOL      1.739766
    174 O23        -4.1180   -3.2940   -2.6450 oh        1 MOL     -0.803010
    175 H82        -4.4940   -2.6860   -2.0100 ho        1 MOL      0.401885
    176 H83        -4.5080   -3.0350   -3.4790 ho        1 MOL      0.401885
    177 O24        -2.1280   -7.7990   -1.8180 oh        1 MOL     -0.803010
    178 H84        -1.9380   -8.6420   -2.2230 ho        1 MOL      0.401885
    179 H85        -3.0360   -7.8740   -1.5230 ho        1 MOL      0.401885
    180 O25        -0.8600   -5.7400    0.3940 oh        1 MOL     -0.803010
    181 H86        -1.2530   -6.5530    0.7030 ho        1 MOL      0.401885
    182 H87        -0.5190   -5.3210    1.1870 ho        1 MOL      0.401885
    183 O26        -4.5690   -6.3230   -1.6120 oh        1 MOL     -0.803010
    184 H88        -4.8540   -7.0920   -2.1230 ho        1 MOL      0.401885
    185 H89        -5.3860   -5.9300   -1.3180 ho        1 MOL      0.401885
    186 O27        -3.2380   -5.6400   -4.2970 oh        1 MOL     -0.803010
    187 H90        -3.4640   -6.4080   -4.8340 ho        1 MOL      0.401885
    188 H91        -3.7450   -4.9300   -4.6780 ho        1 MOL      0.401885
@<TRIPOS>BOND
     1    1    2 1   
     2    1    4 1   
     3    1    5 1   
     4    1    6 1   
     5    2    3 2   
     6    2    7 1   
     7    7    8 1   
     8    7   15 1   
     9    8    9 1   
    10    8   11 1   
    11    8   16 1   
    12    9   10 2   
    13    9   19 1   
    14   11   12 1   
    15   11   17 1   
    16   11   18 1   
    17   12   13 1   
    18   12   14 1   
    19   19   20 1   
    20   19   28 1   
    21   20   21 1   
    22   20   23 1   
    23   20   29 1   
    24   21   22 2   
    25   21   41 1   
    26   23   24 1   
    27   23   30 1   
    28   23   31 1   
    29   24   25 1   
    30   24   32 1   
    31   24   33 1   
    32   25   26 1   
    33   25   34 1   
    34   25   35 1   
    35   26   27 1   
    36   26   36 1   
    37   26   37 1   
    38   27   38 1   
    39   27   39 1   
    40   27   40 1   
    41   41   42 1   
    42   41   49 1   
    43   42   43 1   
    44   42   45 1   
    45   42   50 1   
    46   43   44 2   
    47   43   53 1   
    48   45   46 1   
    49   45   51 1   
    50   45   52 1   
    51   46   47 1   
    52   46   48 1   
    53   53   54 1   
    54   53   57 1   
    55   54   55 1   
    56   54   58 1   
    57   54   59 1   
    58   55   56 2   
    59   55   60 1   
    60   60   61 1   
    61   60   68 1   
    62   61   62 1   
    63   61   64 1   
    64   61   69 1   
    65   62   63 2   
    66   62   74 1   
    67   64   65 1   
    68   64   70 1   
    69   64   71 1   
    70   65   66 1   
    71   65   67 2   
    72   66   72 1   
    73   66   73 1   
    74   74   75 1   
    75   74   78 1   
    76   75   76 1   
    77   75   79 1   
    78   75   80 1   
    79   76   77 2   
    80   76   81 1   
    81   81   82 1   
    82   81   93 1   
    83   82   83 1   
    84   82   85 1   
    85   82   94 1   
    86   83   84 2   
    87   83  102 1   
    88   85   86 1   
    89   85   95 1   
    90   85   96 1   
    91   86   87 ar  
    92   86   88 ar  
    93   87   89 ar  
    94   87   97 1   
    95   88   90 ar  
    96   88   98 1   
    97   89   91 ar  
    98   89   99 1   
    99   90   91 ar  
   100   90  100 1   
   101   91   92 1   
   102   92  101 1   
   103  102  103 1   
   104  102  110 1   
   105  103  104 1   
   106  103  106 1   
   107  103  111 1   
   108  104  105 2   
   109  104  121 1   
   110  106  107 1   
   111  106  108 1   
   112  106  112 1   
   113  107  109 1   
   114  107  113 1   
   115  107  114 1   
   116  108  115 1   
   117  108  116 1   
   118  108  117 1   
   119  109  118 1   
   120  109  119 1   
   121  109  120 1   
   122  121  122 1   
   123  121  127 1   
   124  122  123 1   
   125  122  125 1   
   126  122  128 1   
   127  123  124 2   
   128  123  132 1   
   129  125  126 1   
   130  125  129 1   
   131  125  130 1   
   132  126  131 1   
   133  132  133 1   
   134  132  137 1   
   135  133  134 1   
   136  133  136 1   
   137  133  138 1   
   138  134  135 2   
   139  134  142 1   
   140  136  139 1   
   141  136  140 1   
   142  136  141 1   
   143  142  143 1   
   144  142  147 1   
   145  143  144 1   
   146  143  146 1   
   147  143  148 1   
   148  144  145 2   
   149  144  152 1   
   150  146  149 1   
   151  146  150 1   
   152  146  151 1   
   153  152  153 1   
   154  152  161 1   
   155  153  154 1   
   156  153  156 1   
   157  153  162 1   
   158  154  155 2   
   159  154  167 1   
   160  156  157 1   
   161  156  163 1   
   162  156  164 1   
   163  157  158 1   
   164  157  165 1   
   165  157  166 1   
   166  158  159 1   
   167  158  160 1   
   168  167  168 1   
   169  167  172 1   
   170  168  169 1   
   171  168  170 1   
   172  168  171 1   
   173  174  175 1   
   174  174  176 1   
   175  177  178 1   
   176  177  179 1   
   177  180  181 1   
   178  180  182 1   
   179  183  184 1   
   180  183  185 1   
   181  186  187 1   
   182  186  188 1   
@<TRIPOS>SUBSTRUCTURE
     1 MOL         1 TEMP              0 ****  ****    0 ROOT
