@<TRIPOS>MOLECULE
MOL
  181   177     1     0     0
SMALL
resp


@<TRIPOS>ATOM
      1 C1          2.3020   -3.0600    3.7460 c3        1 MOL     -0.303625
      2 C2          3.6370   -2.3710    3.3940 c         1 MOL      0.535201
      3 O1          3.7740   -1.1470    3.1930 o         1 MOL     -0.573188
      4 H1          1.6340   -3.0170    2.8860 hc        1 MOL      0.072864
      5 H2          2.4880   -4.1020    4.0090 hc        1 MOL      0.072864
      6 H3          1.8400   -2.5490    4.5910 hc        1 MOL      0.072864
      7 N1          4.7220   -3.0720    3.3600 n         1 MOL     -0.225306
      8 C3          6.0890   -2.6170    2.9960 c3        1 MOL     -0.085001
      9 C4          6.3530   -2.5130    1.5170 c         1 MOL      0.532955
     10 O2          5.7360   -3.2230    0.7650 o         1 MOL     -0.554382
     11 C5          6.9870   -3.6660    3.6950 c3        1 MOL     -0.009328
     12 C6          8.4390   -3.4070    3.4010 c         1 MOL      0.561300
     13 O3          8.9420   -2.2470    3.6950 o         1 MOL     -0.688458
     14 O4          9.0110   -4.1480    2.5990 o         1 MOL     -0.688458
     15 H4          4.6920   -4.0240    3.6900 hn        1 MOL      0.187266
     16 H5          6.2640   -1.6420    3.4510 h1        1 MOL      0.066457
     17 H6          6.8140   -4.7020    3.4050 hc        1 MOL     -0.017914
     18 H7          6.8010   -3.6480    4.7770 hc        1 MOL     -0.017914
     19 N2          7.2440   -1.6630    1.0450 n         1 MOL     -0.214864
     20 C7          7.4290   -1.2180   -0.3220 c3        1 MOL      0.198306
     21 C8          6.1410   -0.4670   -0.8500 c         1 MOL      0.470112
     22 O5          5.5580    0.3510   -0.1480 o         1 MOL     -0.526232
     23 C9          8.7840   -0.4260   -0.3820 c3        1 MOL     -0.194365
     24 H8          7.7730   -1.1230    1.7030 hn        1 MOL      0.178985
     25 H9          7.5300   -2.1080   -0.9410 h1        1 MOL      0.010751
     26 H10         9.6220   -1.0960   -0.1760 hc        1 MOL      0.053099
     27 H11         8.8760    0.0010   -1.3690 hc        1 MOL      0.053099
     28 H12         8.7230    0.4630    0.2440 hc        1 MOL      0.053099
     29 N3          5.8080   -0.9030   -2.0580 n         1 MOL     -0.456688
     30 C10         4.9180   -0.1350   -2.9090 c3        1 MOL      0.097350
     31 C11         5.5630    1.2490   -3.3260 c         1 MOL      0.520109
     32 O6          6.7680    1.4470   -3.1180 o         1 MOL     -0.481765
     33 C12         4.3600   -0.9670   -4.0300 c3        1 MOL     -0.206858
     34 C13         3.7790   -2.2300   -3.4250 c         1 MOL      0.780272
     35 O7          2.5820   -2.2190   -2.9610 o         1 MOL     -0.743963
     36 O8          4.5470   -3.2310   -3.4490 o         1 MOL     -0.743963
     37 H13         6.4480   -1.5500   -2.4970 hn        1 MOL      0.288956
     38 H14         4.0740    0.2370   -2.3400 h1        1 MOL      0.090443
     39 H15         5.2030   -1.2160   -4.6700 hc        1 MOL      0.026562
     40 H16         3.6000   -0.4240   -4.5980 hc        1 MOL      0.026562
     41 N4          4.7620    2.1710   -3.8640 n         1 MOL     -0.488709
     42 C14         5.2360    3.5040   -4.3480 c3        1 MOL     -0.000368
     43 C15         4.4740    4.6870   -3.8060 c         1 MOL      0.537932
     44 O9          4.9090    5.8530   -4.0770 o         1 MOL     -0.565098
     45 H17         3.7670    2.0100   -3.9430 hn        1 MOL      0.304515
     46 H18         5.1560    3.5460   -5.4390 h1        1 MOL      0.065156
     47 H19         6.2730    3.6110   -4.0350 h1        1 MOL      0.065156
     48 N5          3.3630    4.5640   -3.0950 n         1 MOL     -0.342127
     49 C16         2.7320    5.6750   -2.4220 c3        1 MOL      0.243048
     50 C17         2.2400    5.1750   -0.9930 c         1 MOL      0.394457
     51 O10         2.0910    3.9290   -0.7740 o         1 MOL     -0.428165
     52 C18         1.5120    6.1550   -3.2220 c3        1 MOL     -0.442529
     53 C19         1.9460    6.6300   -4.5980 c         1 MOL      0.708819
     54 N6          1.8860    5.7840   -5.5730 n         1 MOL     -0.818825
     55 O11         2.2960    7.7950   -4.7890 o         1 MOL     -0.567208
     56 H20         3.0540    3.6020   -2.9870 hn        1 MOL      0.196665
     57 H21         3.4890    6.4390   -2.2130 h1        1 MOL      0.032800
     58 H22         1.1100    6.9750   -2.6240 hc        1 MOL      0.119096
     59 H23         0.8130    5.3230   -3.3050 hc        1 MOL      0.119096
     60 H24         1.3680    4.9480   -5.3590 hn        1 MOL      0.380847
     61 H25         2.2580    6.0390   -6.4740 hn        1 MOL      0.380847
     62 N7          2.0680    6.1370   -0.0580 n         1 MOL     -0.400716
     63 C20         1.7260    5.7970    1.3210 c3        1 MOL     -0.126853
     64 C21         0.1960    5.7310    1.6150 c         1 MOL      0.550233
     65 O12        -0.6260    5.3760    0.7070 o         1 MOL     -0.478451
     66 H26         2.1520    7.0940   -0.3820 hn        1 MOL      0.312802
     67 H27         2.0310    6.6300    1.9570 h1        1 MOL      0.106119
     68 H28         2.2190    4.8860    1.6420 h1        1 MOL      0.106119
     69 N8         -0.2850    6.2300    2.7920 n         1 MOL     -0.384448
     70 C22        -1.7450    6.1940    3.0310 c3        1 MOL     -0.366814
     71 C23        -2.3660    4.8290    3.3660 c         1 MOL      0.518685
     72 O13        -3.5900    4.7320    3.3220 o         1 MOL     -0.550925
     73 C24        -2.0030    7.0730    4.2030 c3        1 MOL      0.594787
     74 C25        -1.3990    6.6520    5.5720 c3        1 MOL     -0.492044
     75 O14        -1.4830    8.3600    3.9470 oh        1 MOL     -0.674548
     76 H29         0.3960    6.4060    3.5090 hn        1 MOL      0.256794
     77 H30        -2.2440    6.4420    2.0970 h1        1 MOL      0.197044
     78 H31        -3.0910    7.1680    4.3100 h1        1 MOL      0.011415
     79 H32        -0.5280    8.3170    3.9040 ho        1 MOL      0.385939
     80 H33        -0.4060    6.2260    5.4750 hc        1 MOL      0.115394
     81 H34        -1.4040    7.4800    6.2780 hc        1 MOL      0.115394
     82 H35        -2.0760    5.9010    5.9940 hc        1 MOL      0.115394
     83 N9         -1.5770    3.7740    3.5450 n         1 MOL     -0.186302
     84 C26        -1.9920    2.3930    3.7020 c3        1 MOL      0.035087
     85 C27        -1.4590    1.4970    2.5140 c         1 MOL      0.353760
     86 O15        -0.2460    1.5470    2.2710 o         1 MOL     -0.458026
     87 C28        -1.5680    1.7600    5.0540 c3        1 MOL      0.040944
     88 C29        -2.1850    2.4080    6.3280 c3        1 MOL     -0.353083
     89 C30        -2.0490    0.2710    5.0370 c3        1 MOL      0.202115
     90 C31        -3.7170    2.6040    6.3970 c3        1 MOL     -0.009787
     91 H36        -0.5870    3.9710    3.4270 hn        1 MOL      0.168498
     92 H37        -3.0620    2.3610    3.5460 h1        1 MOL      0.061073
     93 H38        -0.4830    1.8200    5.1870 hc        1 MOL      0.036310
     94 H39        -1.8480    3.4460    6.3330 hc        1 MOL      0.100810
     95 H40        -1.9580    1.7940    7.2030 hc        1 MOL      0.100810
     96 H41        -1.5530   -0.3390    4.2780 hc        1 MOL     -0.045340
     97 H42        -1.8910   -0.2100    5.9960 hc        1 MOL     -0.045340
     98 H43        -3.1350    0.2840    4.8910 hc        1 MOL     -0.045340
     99 H44        -4.2120    1.6200    6.4100 hc        1 MOL      0.011014
    100 H45        -4.0110    3.0830    7.3270 hc        1 MOL      0.011014
    101 H46        -4.0480    3.2310    5.5740 hc        1 MOL      0.011014
    102 N10        -2.2800    0.6980    1.8470 n         1 MOL     -0.276545
    103 C32        -1.8460   -0.1500    0.7750 c3        1 MOL      0.002722
    104 C33        -3.0480   -0.5050   -0.1360 c         1 MOL      0.538645
    105 O16        -3.1110   -1.5620   -0.6720 o         1 MOL     -0.393589
    106 C34        -1.2810   -1.4890    1.4170 c3        1 MOL     -0.231257
    107 C35        -0.3410   -2.2950    0.4970 c         1 MOL      0.765891
    108 O17        -0.0930   -3.4690    0.6290 o         1 MOL     -0.710301
    109 O18         0.2580   -1.7750   -0.4800 o         1 MOL     -0.710301
    110 H47        -3.2740    0.7380    2.0490 hn        1 MOL      0.222279
    111 H48        -0.9620    0.2440    0.2670 h1        1 MOL      0.105676
    112 H49        -2.1660   -2.0370    1.7520 hc        1 MOL      0.059577
    113 H50        -0.8070   -1.2160    2.3620 hc        1 MOL      0.059577
    114 N11        -4.0110    0.4610   -0.2790 n         1 MOL     -0.542019
    115 C36        -5.1450    0.3180   -1.1930 c3        1 MOL      0.364211
    116 C37        -5.9560   -0.9580   -0.8510 c         1 MOL      0.222426
    117 O19        -6.1770   -1.1980    0.3510 o         1 MOL     -0.506274
    118 C38        -5.9670    1.6700   -1.0620 c3        1 MOL     -0.351977
    119 C39        -7.1860    1.7000   -1.9710 ca        1 MOL      0.165241
    120 C40        -7.1580    2.6850   -3.0820 ca        1 MOL     -0.201797
    121 C41        -8.3610    0.9370   -1.7950 ca        1 MOL     -0.201797
    122 C42        -8.2620    2.8250   -3.9190 ca        1 MOL     -0.086129
    123 C43        -9.3950    1.0380   -2.7210 ca        1 MOL     -0.086129
    124 C44        -9.4200    2.0070   -3.7310 ca        1 MOL     -0.157449
    125 H51        -3.9020    1.3810    0.1180 hn        1 MOL      0.260474
    126 H52        -4.7330    0.1860   -2.1840 h1        1 MOL     -0.036719
    127 H53        -5.3990    2.5960   -1.1850 hc        1 MOL      0.130714
    128 H54        -6.4460    1.6770   -0.0780 hc        1 MOL      0.130714
    129 H55        -6.3350    3.3690   -3.2370 ha        1 MOL      0.131972
    130 H56        -8.5010    0.2260   -0.9820 ha        1 MOL      0.131972
    131 H57        -8.2470    3.5090   -4.7580 ha        1 MOL      0.104742
    132 H58       -10.2510    0.3820   -2.6380 ha        1 MOL      0.104742
    133 H59       -10.2730    2.0490   -4.3920 ha        1 MOL      0.112230
    134 N12        -6.3870   -1.7350   -1.8750 n         1 MOL      0.181536
    135 C45        -7.2130   -2.8510   -1.7230 c3        1 MOL      0.086915
    136 C46        -6.6380   -3.9950   -0.7650 c         1 MOL      0.149040
    137 O20        -7.4010   -4.7470   -0.0580 o         1 MOL     -0.492928
    138 C47        -7.5250   -3.4240   -3.0340 c3        1 MOL      0.029133
    139 C48        -7.4950   -2.1760   -3.9740 c3        1 MOL     -0.074068
    140 C49        -6.3420   -1.4080   -3.3390 c3        1 MOL     -0.209436
    141 H60        -8.0410   -2.4290   -1.1690 h1        1 MOL      0.009090
    142 H61        -6.6670   -4.0700   -3.2140 hc        1 MOL      0.020956
    143 H62        -8.4850   -3.9370   -3.1140 hc        1 MOL      0.020956
    144 H63        -7.3430   -2.5550   -4.9920 hc        1 MOL      0.036230
    145 H64        -8.4150   -1.6260   -3.7990 hc        1 MOL      0.036230
    146 H65        -5.3920   -1.7980   -3.7080 h1        1 MOL      0.095142
    147 H66        -6.5170   -0.3590   -3.5620 h1        1 MOL      0.095142
    148 N13        -5.2900   -4.0290   -0.6330 n         1 MOL      0.109567
    149 C50        -4.6460   -4.9820    0.2450 c3        1 MOL     -0.265119
    150 C51        -4.7870   -4.8180    1.7210 c         1 MOL      0.483976
    151 O21        -4.6470   -5.7430    2.5350 o         1 MOL     -0.556239
    152 C52        -3.0990   -5.0680   -0.0030 c3        1 MOL      0.348680
    153 C53        -2.7150   -5.0910   -1.4940 c3        1 MOL     -0.452112
    154 C54        -1.2330   -4.8800   -1.7250 c         1 MOL      0.918980
    155 O22        -0.6650   -3.9730   -2.3500 o         1 MOL     -0.796423
    156 O23        -0.4370   -5.6860   -1.2530 o         1 MOL     -0.796423
    157 H67        -4.6810   -3.3210   -1.0150 hn        1 MOL      0.001863
    158 H68        -5.1010   -5.9380   -0.0060 h1        1 MOL      0.125841
    159 H69        -2.7060   -5.9090    0.5630 hc        1 MOL     -0.042766
    160 H70        -2.6010   -4.1670    0.3610 hc        1 MOL     -0.042766
    161 H71        -3.2470   -4.2660   -1.9630 hc        1 MOL      0.056035
    162 H72        -3.1480   -5.9680   -1.9920 hc        1 MOL      0.056035
    163 N14        -5.1300   -3.5870    2.1610 n         1 MOL     -0.194008
    164 C55        -5.3490   -3.3670    3.6410 c3        1 MOL     -0.294285
    165 H73        -4.5110   -2.8040    4.0510 h1        1 MOL      0.111223
    166 H74        -6.2710   -2.8080    3.7940 h1        1 MOL      0.111223
    167 H75        -5.4190   -4.3310    4.1450 h1        1 MOL      0.111223
    168 H76        -5.2110   -2.8400    1.4930 hn        1 MOL      0.245201
    169 Ca1         1.6350   -3.9740   -1.1700 Ca        1 MOL      1.816315
    170 O24         1.9870   -5.9180   -2.8980 oh        1 MOL     -0.898134
    171 H77         1.4520   -6.3940   -3.5330 ho        1 MOL      0.427237
    172 H78         2.8740   -6.2660   -3.0170 ho        1 MOL      0.427237
    173 O25         2.4290   -5.1550    1.1180 oh        1 MOL     -0.898134
    174 H79         3.2740   -5.2600    1.5620 ho        1 MOL      0.427237
    175 H80         1.8040   -5.6060    1.6860 ho        1 MOL      0.427237
    176 O26         3.1960   -2.0970    0.3870 oh        1 MOL     -0.898134
    177 H81         2.8690   -1.2700    0.7330 ho        1 MOL      0.427237
    178 H82         4.0650   -2.1920    0.7720 ho        1 MOL      0.427237
    179 O27         4.2590   -4.4160   -1.1530 oh        1 MOL     -0.898134
    180 H83         4.3840   -4.0360   -2.0230 ho        1 MOL      0.427237
    181 H84         4.7930   -3.8840   -0.5700 ho        1 MOL      0.427237
@<TRIPOS>BOND
     1    1    2 1   
     2    1    4 1   
     3    1    5 1   
     4    1    6 1   
     5    2    3 2   
     6    2    7 1   
     7    7    8 1   
     8    7   15 1   
     9    8    9 1   
    10    8   11 1   
    11    8   16 1   
    12    9   10 2   
    13    9   19 1   
    14   11   12 1   
    15   11   17 1   
    16   11   18 1   
    17   12   13 1   
    18   12   14 1   
    19   19   20 1   
    20   19   24 1   
    21   20   21 1   
    22   20   23 1   
    23   20   25 1   
    24   21   22 2   
    25   21   29 1   
    26   23   26 1   
    27   23   27 1   
    28   23   28 1   
    29   29   30 1   
    30   29   37 1   
    31   30   31 1   
    32   30   33 1   
    33   30   38 1   
    34   31   32 2   
    35   31   41 1   
    36   33   34 1   
    37   33   39 1   
    38   33   40 1   
    39   34   35 1   
    40   34   36 1   
    41   41   42 1   
    42   41   45 1   
    43   42   43 1   
    44   42   46 1   
    45   42   47 1   
    46   43   44 2   
    47   43   48 1   
    48   48   49 1   
    49   48   56 1   
    50   49   50 1   
    51   49   52 1   
    52   49   57 1   
    53   50   51 2   
    54   50   62 1   
    55   52   53 1   
    56   52   58 1   
    57   52   59 1   
    58   53   54 1   
    59   53   55 2   
    60   54   60 1   
    61   54   61 1   
    62   62   63 1   
    63   62   66 1   
    64   63   64 1   
    65   63   67 1   
    66   63   68 1   
    67   64   65 2   
    68   64   69 1   
    69   69   70 1   
    70   69   76 1   
    71   70   71 1   
    72   70   73 1   
    73   70   77 1   
    74   71   72 2   
    75   71   83 1   
    76   73   74 1   
    77   73   75 1   
    78   73   78 1   
    79   74   80 1   
    80   74   81 1   
    81   74   82 1   
    82   75   79 1   
    83   83   84 1   
    84   83   91 1   
    85   84   85 1   
    86   84   87 1   
    87   84   92 1   
    88   85   86 2   
    89   85  102 1   
    90   87   88 1   
    91   87   89 1   
    92   87   93 1   
    93   88   90 1   
    94   88   94 1   
    95   88   95 1   
    96   89   96 1   
    97   89   97 1   
    98   89   98 1   
    99   90   99 1   
   100   90  100 1   
   101   90  101 1   
   102  102  103 1   
   103  102  110 1   
   104  103  104 1   
   105  103  106 1   
   106  103  111 1   
   107  104  105 2   
   108  104  114 1   
   109  106  107 1   
   110  106  112 1   
   111  106  113 1   
   112  107  108 1   
   113  107  109 1   
   114  114  115 1   
   115  114  125 1   
   116  115  116 1   
   117  115  118 1   
   118  115  126 1   
   119  116  117 2   
   120  116  134 1   
   121  118  119 1   
   122  118  127 1   
   123  118  128 1   
   124  119  120 ar  
   125  119  121 ar  
   126  120  122 ar  
   127  120  129 1   
   128  121  123 ar  
   129  121  130 1   
   130  122  124 ar  
   131  122  131 1   
   132  123  124 ar  
   133  123  132 1   
   134  124  133 1   
   135  134  135 1   
   136  134  140 1   
   137  135  136 1   
   138  135  138 1   
   139  135  141 1   
   140  136  137 2   
   141  136  148 1   
   142  138  139 1   
   143  138  142 1   
   144  138  143 1   
   145  139  140 1   
   146  139  144 1   
   147  139  145 1   
   148  140  146 1   
   149  140  147 1   
   150  148  149 1   
   151  148  157 1   
   152  149  150 1   
   153  149  152 1   
   154  149  158 1   
   155  150  151 2   
   156  150  163 1   
   157  152  153 1   
   158  152  159 1   
   159  152  160 1   
   160  153  154 1   
   161  153  161 1   
   162  153  162 1   
   163  154  155 1   
   164  154  156 1   
   165  163  164 1   
   166  163  168 1   
   167  164  165 1   
   168  164  166 1   
   169  164  167 1   
   170  170  171 1   
   171  170  172 1   
   172  173  174 1   
   173  173  175 1   
   174  176  177 1   
   175  176  178 1   
   176  179  180 1   
   177  179  181 1   
@<TRIPOS>SUBSTRUCTURE
     1 MOL         1 TEMP              0 ****  ****    0 ROOT
