@<TRIPOS>MOLECULE
MOL
  191   184     1     0     0
SMALL
resp


@<TRIPOS>ATOM
      1 C1          0.8260    1.0180    2.8620 c3        1 MOL     -0.356468
      2 C2          2.1070    0.6950    2.0460 c         1 MOL      0.644534
      3 O1          2.4140    1.1780    0.9350 o         1 MOL     -0.587983
      4 H1         -0.0450    0.9570    2.2090 hc        1 MOL      0.097121
      5 H2          0.7210    0.2990    3.6750 hc        1 MOL      0.097121
      6 H3          0.9000    2.0240    3.2740 hc        1 MOL      0.097121
      7 N1          2.9740   -0.2520    2.5350 n         1 MOL     -0.547364
      8 C3          4.3650   -0.4120    2.1070 c3        1 MOL      0.192758
      9 C4          4.6800   -1.7850    1.5060 c         1 MOL      0.351748
     10 O2          5.8460   -1.9300    1.1100 o         1 MOL     -0.473984
     11 C5          5.3090   -0.0490    3.2930 c3        1 MOL     -0.387327
     12 C6          5.4620   -1.1280    4.4040 c         1 MOL      0.826565
     13 O3          4.4870   -1.2680    5.1650 o         1 MOL     -0.748578
     14 O4          6.5410   -1.7540    4.6180 o         1 MOL     -0.748578
     15 H4          2.7970   -0.5730    3.4780 hn        1 MOL      0.289776
     16 H5          4.6070    0.2130    1.2430 h1        1 MOL      0.085073
     17 H6          5.0020    0.8290    3.8730 hc        1 MOL      0.122668
     18 H7          6.2730    0.0790    2.8010 hc        1 MOL      0.122668
     19 N2          3.7980   -2.8090    1.5550 n         1 MOL     -0.089634
     20 C7          3.8780   -4.1820    1.0810 c3        1 MOL     -0.077693
     21 C8          4.4850   -4.3530   -0.3160 c         1 MOL      0.631067
     22 O5          5.1990   -5.3570   -0.5350 o         1 MOL     -0.513753
     23 C9          4.6400   -5.0270    2.0810 c3        1 MOL     -0.059852
     24 C10         4.0950   -5.0280    3.5110 c3        1 MOL      0.137041
     25 C11         4.8970   -5.8640    4.4470 c3        1 MOL     -0.027089
     26 C12         4.9550   -5.4200    5.9720 c3        1 MOL     -0.022328
     27 N3          5.8840   -4.3380    6.1740 n4        1 MOL     -0.291225
     28 H8          2.8700   -2.5350    1.8520 hn        1 MOL      0.085578
     29 H9          2.8550   -4.5550    1.0850 h1        1 MOL      0.111371
     30 H10         5.6520   -4.6110    2.0910 hc        1 MOL      0.037061
     31 H11         4.7330   -6.0710    1.7790 hc        1 MOL      0.037061
     32 H12         3.0860   -5.4470    3.4570 hc        1 MOL     -0.027117
     33 H13         4.1540   -4.0100    3.8890 hc        1 MOL     -0.027117
     34 H14         5.9160   -5.8900    4.0500 hc        1 MOL      0.027739
     35 H15         4.5850   -6.9030    4.4300 hc        1 MOL      0.027739
     36 H16         5.3220   -6.1700    6.6640 hx        1 MOL      0.070831
     37 H17         3.9200   -5.2310    6.2670 hx        1 MOL      0.070831
     38 H18         5.5110   -3.4580    5.8470 hn        1 MOL      0.308277
     39 H19         6.0220   -4.1710    7.1660 hn        1 MOL      0.308277
     40 H20         6.7290   -4.5630    5.6530 hn        1 MOL      0.308277
     41 N4          4.2090   -3.4520   -1.2620 n         1 MOL     -0.721528
     42 C13         4.6270   -3.5370   -2.7270 c3        1 MOL      0.388283
     43 C14         4.8930   -2.1950   -3.3490 c         1 MOL      0.341060
     44 O6          5.0710   -2.1670   -4.6010 o         1 MOL     -0.499745
     45 C15         3.5800   -4.2910   -3.5440 c3        1 MOL     -0.490251
     46 C16         2.1270   -3.9250   -3.1750 c         1 MOL      0.984520
     47 O7          1.4370   -4.7660   -2.6070 o         1 MOL     -0.769727
     48 O8          1.6380   -2.7900   -3.4290 o         1 MOL     -0.769727
     49 H21         3.6810   -2.6270   -1.0130 hn        1 MOL      0.174981
     50 H22         5.5710   -4.0790   -2.7670 h1        1 MOL      0.083716
     51 H23         3.7080   -5.2970   -3.1450 hc        1 MOL      0.105075
     52 H24         3.7410   -4.3090   -4.6230 hc        1 MOL      0.105075
     53 N5          5.0600   -1.2490   -2.5010 n         1 MOL     -0.282570
     54 C17         5.3590    0.1240   -2.8220 c3        1 MOL     -0.175910
     55 C18         6.8730    0.3330   -2.8560 c         1 MOL      0.609369
     56 O9          7.6200   -0.5410   -3.2340 o         1 MOL     -0.516593
     57 H25         4.7770   -1.3820   -1.5380 hn        1 MOL      0.317028
     58 H26         4.9930    0.7830   -2.0290 h1        1 MOL      0.122931
     59 H27         4.9430    0.3640   -3.8070 h1        1 MOL      0.122931
     60 N6          7.4230    1.4510   -2.4140 n         1 MOL     -0.609160
     61 C19         6.6850    2.6660   -1.9990 c3        1 MOL      0.339081
     62 C20         6.0820    2.4170   -0.5350 c         1 MOL      0.507306
     63 O10         6.8870    2.0650    0.3020 o         1 MOL     -0.506847
     64 C21         7.5130    3.8890   -2.1820 c3        1 MOL     -0.290048
     65 C22         6.7420    5.2130   -2.1770 c         1 MOL      0.659452
     66 N7          5.9440    5.4020   -3.2000 n         1 MOL     -0.763171
     67 O11         6.9920    6.0570   -1.3200 o         1 MOL     -0.539487
     68 H28         8.4280    1.5730   -2.4570 hn        1 MOL      0.334165
     69 H29         5.8880    2.7760   -2.7340 h1        1 MOL     -0.067919
     70 H30         8.0300    3.8220   -3.1420 hc        1 MOL      0.093439
     71 H31         8.2890    3.9240   -1.4270 hc        1 MOL      0.093439
     72 H32         5.8130    4.6160   -3.8270 hn        1 MOL      0.362350
     73 H33         5.2910    6.1730   -3.0910 hn        1 MOL      0.362350
     74 N8          4.8500    2.8170   -0.2280 n         1 MOL     -0.557062
     75 C23         3.7680    3.1690   -1.1250 c3        1 MOL     -0.009002
     76 C24         2.8560    4.0980   -0.3440 c         1 MOL      0.690088
     77 O12         3.2010    4.8340    0.6120 o         1 MOL     -0.530206
     78 H34         4.6660    2.6820    0.7520 hn        1 MOL      0.352273
     79 H35         3.2240    2.2880   -1.4470 h1        1 MOL      0.033063
     80 H36         4.0700    3.6710   -2.0440 h1        1 MOL      0.033063
     81 N9          1.5600    4.1210   -0.7630 n         1 MOL     -0.653802
     82 C25         0.4520    4.8740   -0.2460 c3        1 MOL      0.224962
     83 C26        -0.7980    4.0690   -0.0040 c         1 MOL      0.620156
     84 O13        -1.0320    3.0630   -0.7010 o         1 MOL     -0.548065
     85 C27         0.2340    6.1560   -1.0970 c3        1 MOL     -0.211472
     86 C28        -0.5590    7.2790   -0.5000 ca        1 MOL      0.086582
     87 C29        -1.9240    7.4440   -0.8170 ca        1 MOL     -0.161898
     88 C30         0.0200    8.0440    0.5430 ca        1 MOL     -0.161898
     89 C31        -2.7300    8.3850   -0.1510 ca        1 MOL     -0.310455
     90 C32        -0.8110    8.9890    1.1710 ca        1 MOL     -0.310455
     91 C33        -2.1970    9.1900    0.8190 ca        1 MOL      0.403556
     92 O14        -2.9860   10.0740    1.5260 oh        1 MOL     -0.515190
     93 H37         1.3900    3.4540   -1.5000 hn        1 MOL      0.315522
     94 H38         0.7130    5.3550    0.6980 h1        1 MOL      0.024205
     95 H39        -0.2670    5.9030   -2.0330 hc        1 MOL      0.068289
     96 H40         1.2130    6.6390   -1.2110 hc        1 MOL      0.068289
     97 H41        -2.3930    6.8390   -1.5880 ha        1 MOL      0.161963
     98 H42         1.0800    7.9310    0.6940 ha        1 MOL      0.161963
     99 H43        -3.7410    8.6070   -0.4450 ha        1 MOL      0.152484
    100 H44        -0.3550    9.6370    1.9200 ha        1 MOL      0.152484
    101 H45        -2.5370   10.5240    2.2480 ho        1 MOL      0.373695
    102 N10        -1.5020    4.4500    1.0430 n         1 MOL     -0.412572
    103 C34        -2.8000    3.8590    1.5140 c3        1 MOL     -0.343426
    104 C35        -3.8230    3.8230    0.4310 c         1 MOL      0.679315
    105 O15        -3.9080    4.7460   -0.3770 o         1 MOL     -0.512587
    106 C36        -3.3170    4.6470    2.7140 c3        1 MOL      0.249985
    107 C37        -2.7080    4.1210    4.0060 c3        1 MOL     -0.167677
    108 C38        -2.9420    6.0820    2.5520 c3        1 MOL     -0.160179
    109 C39        -3.3650    4.7380    5.2300 c3        1 MOL     -0.156707
    110 H46        -1.0930    5.1390    1.6470 hn        1 MOL      0.273283
    111 H47        -2.6060    2.8960    1.9910 h1        1 MOL      0.156952
    112 H48        -4.3930    4.5240    2.7790 hc        1 MOL      0.019241
    113 H49        -1.6700    4.4490    4.0370 hc        1 MOL      0.066864
    114 H50        -2.8320    3.0320    3.9750 hc        1 MOL      0.066864
    115 H51        -1.8780    6.2400    2.7040 hc        1 MOL      0.047751
    116 H52        -3.0330    6.3830    1.5010 hc        1 MOL      0.047751
    117 H53        -3.4640    6.7670    3.2190 hc        1 MOL      0.047751
    118 H54        -4.3990    4.4580    5.3850 hc        1 MOL      0.048930
    119 H55        -2.8110    4.3950    6.1100 hc        1 MOL      0.048930
    120 H56        -3.3290    5.8250    5.2640 hc        1 MOL      0.048930
    121 N11        -4.4670    2.7020    0.3780 n         1 MOL     -0.496636
    122 C40        -5.4560    2.4290   -0.7450 c3        1 MOL      0.037312
    123 C41        -5.4730    1.0200   -1.3640 c         1 MOL      0.669055
    124 O16        -4.8690    0.0670   -0.8080 o         1 MOL     -0.499011
    125 C42        -6.8190    2.7860   -0.2430 c3        1 MOL      0.116446
    126 O17        -7.1710    1.9760    0.9130 oh        1 MOL     -0.618919
    127 H57        -4.2280    1.8770    0.9120 hn        1 MOL      0.306373
    128 H58        -5.2530    3.1400   -1.5420 h1        1 MOL      0.047798
    129 H59        -7.5630    2.6700   -1.0350 h1        1 MOL      0.029247
    130 H60        -6.8460    3.8230    0.0600 h1        1 MOL      0.029247
    131 H61        -7.9360    2.3380    1.3680 ho        1 MOL      0.418739
    132 N12        -6.0910    0.9590   -2.5230 n         1 MOL     -0.578925
    133 C43        -6.2850   -0.3130   -3.2930 c3        1 MOL      0.075915
    134 C44        -6.7810   -1.4890   -2.3890 c         1 MOL      0.582130
    135 O18        -6.2050   -2.5780   -2.4010 o         1 MOL     -0.490729
    136 C45        -5.1060   -0.6410   -4.1260 c3        1 MOL     -0.168148
    137 H62        -6.5890    1.7270   -2.9470 hn        1 MOL      0.345145
    138 H63        -7.1770   -0.1630   -3.9030 h1        1 MOL      0.062955
    139 H64        -4.2920   -0.9550   -3.4750 hc        1 MOL      0.068154
    140 H65        -5.3260   -1.4310   -4.8440 hc        1 MOL      0.068154
    141 H66        -4.7730    0.2040   -4.7370 hc        1 MOL      0.068154
    142 N13        -7.8820   -1.2360   -1.6320 n         1 MOL     -0.657160
    143 C46        -8.5330   -2.1190   -0.6990 c3        1 MOL      0.230419
    144 C47        -7.6090   -3.0250    0.1240 c         1 MOL      0.370783
    145 O19        -7.9060   -4.1750    0.4250 o         1 MOL     -0.481744
    146 C48        -9.5030   -2.9620   -1.6210 c3        1 MOL     -0.336160
    147 H67        -8.2850   -0.3200   -1.7170 hn        1 MOL      0.345870
    148 H68        -9.1350   -1.5120   -0.0100 h1        1 MOL      0.055429
    149 H69       -10.3450   -2.3490   -1.9210 hc        1 MOL      0.107033
    150 H70        -8.9240   -3.3890   -2.4460 hc        1 MOL      0.107033
    151 H71       -10.0450   -3.7570   -1.1000 hc        1 MOL      0.107033
    152 N14        -6.4450   -2.5920    0.5840 n         1 MOL     -0.217856
    153 C49        -5.4460   -3.4780    1.2850 c3        1 MOL     -0.186737
    154 C50        -5.9260   -4.0710    2.5930 c         1 MOL      0.511641
    155 O20        -5.5330   -5.2150    2.9310 o         1 MOL     -0.482668
    156 C51        -4.1530   -2.6560    1.5090 c3        1 MOL      0.044653
    157 C52        -2.9290   -3.4300    1.9680 c3        1 MOL     -0.135881
    158 C53        -2.3540   -4.3610    0.8480 c         1 MOL      0.565184
    159 O21        -2.1890   -5.5480    1.1540 o         1 MOL     -0.627895
    160 O22        -1.8450   -3.8160   -0.1440 o         1 MOL     -0.627895
    161 H72        -6.2150   -1.6620    0.2790 hn        1 MOL      0.165456
    162 H73        -5.0870   -4.1910    0.5320 h1        1 MOL      0.168383
    163 H74        -4.3340   -1.9270    2.3010 hc        1 MOL     -0.042017
    164 H75        -3.8780   -2.0270    0.6600 hc        1 MOL     -0.042017
    165 H76        -3.2340   -3.9660    2.8620 hc        1 MOL      0.048183
    166 H77        -2.2410   -2.6310    2.2520 hc        1 MOL      0.048183
    167 N15        -6.5430   -3.2140    3.4220 n         1 MOL     -0.238786
    168 C54        -7.1930   -3.6870    4.6460 c3        1 MOL     -0.151176
    169 H78        -6.4480   -3.7940    5.4340 h1        1 MOL      0.083574
    170 H79        -7.9490   -2.9660    4.9580 h1        1 MOL      0.083574
    171 H80        -7.6650   -4.6510    4.4590 h1        1 MOL      0.083574
    172 H81        -6.8870   -2.3670    2.9910 hn        1 MOL      0.206658
    173 Ca1        -0.8350   -3.3570   -2.3160 Ca        1 MOL      1.747380
    174 O23        -2.3900   -1.1790   -1.1080 oh        1 MOL     -0.893887
    175 H82        -2.6790   -1.8260   -0.4610 ho        1 MOL      0.435850
    176 H83        -3.1010   -0.5400   -1.1470 ho        1 MOL      0.435850
    177 O24        -0.9090   -4.2790   -5.0380 oh        1 MOL     -0.893887
    178 H84        -1.5920   -4.9350   -5.1700 ho        1 MOL      0.435850
    179 H85        -0.7670   -3.8980   -5.9020 ho        1 MOL      0.435850
    180 O25        -1.3410   -5.9510   -2.3660 oh        1 MOL     -0.893887
    181 H86        -0.8920   -6.5160   -2.9840 ho        1 MOL      0.435850
    182 H87        -1.4540   -6.4820   -1.5750 ho        1 MOL      0.435850
    183 O26        -3.4520   -3.5410   -2.8840 oh        1 MOL     -0.893887
    184 H88        -4.2840   -3.2200   -2.5430 ho        1 MOL      0.435850
    185 H89        -3.6300   -4.4430   -3.1520 ho        1 MOL      0.435850
    186 O27        -1.3110   -1.0400   -3.9870 oh        1 MOL     -0.893887
    187 H90        -0.8470   -0.7000   -4.7530 ho        1 MOL      0.435850
    188 H91        -1.9050   -0.3280   -3.7440 ho        1 MOL      0.435850
    189 O28         0.8110   -2.7890   -0.2620 oh        1 MOL     -0.893887
    190 H92         0.5590   -2.7260    0.6590 ho        1 MOL      0.435850
    191 H93         1.6210   -2.2780   -0.3320 ho        1 MOL      0.435850
@<TRIPOS>BOND
     1    1    2 1   
     2    1    4 1   
     3    1    5 1   
     4    1    6 1   
     5    2    3 2   
     6    2    7 1   
     7    7    8 1   
     8    7   15 1   
     9    8    9 1   
    10    8   11 1   
    11    8   16 1   
    12    9   10 2   
    13    9   19 1   
    14   11   12 1   
    15   11   17 1   
    16   11   18 1   
    17   12   13 1   
    18   12   14 1   
    19   19   20 1   
    20   19   28 1   
    21   20   21 1   
    22   20   23 1   
    23   20   29 1   
    24   21   22 2   
    25   21   41 1   
    26   23   24 1   
    27   23   30 1   
    28   23   31 1   
    29   24   25 1   
    30   24   32 1   
    31   24   33 1   
    32   25   26 1   
    33   25   34 1   
    34   25   35 1   
    35   26   27 1   
    36   26   36 1   
    37   26   37 1   
    38   27   38 1   
    39   27   39 1   
    40   27   40 1   
    41   41   42 1   
    42   41   49 1   
    43   42   43 1   
    44   42   45 1   
    45   42   50 1   
    46   43   44 2   
    47   43   53 1   
    48   45   46 1   
    49   45   51 1   
    50   45   52 1   
    51   46   47 1   
    52   46   48 1   
    53   53   54 1   
    54   53   57 1   
    55   54   55 1   
    56   54   58 1   
    57   54   59 1   
    58   55   56 2   
    59   55   60 1   
    60   60   61 1   
    61   60   68 1   
    62   61   62 1   
    63   61   64 1   
    64   61   69 1   
    65   62   63 2   
    66   62   74 1   
    67   64   65 1   
    68   64   70 1   
    69   64   71 1   
    70   65   66 1   
    71   65   67 2   
    72   66   72 1   
    73   66   73 1   
    74   74   75 1   
    75   74   78 1   
    76   75   76 1   
    77   75   79 1   
    78   75   80 1   
    79   76   77 2   
    80   76   81 1   
    81   81   82 1   
    82   81   93 1   
    83   82   83 1   
    84   82   85 1   
    85   82   94 1   
    86   83   84 2   
    87   83  102 1   
    88   85   86 1   
    89   85   95 1   
    90   85   96 1   
    91   86   87 ar  
    92   86   88 ar  
    93   87   89 ar  
    94   87   97 1   
    95   88   90 ar  
    96   88   98 1   
    97   89   91 ar  
    98   89   99 1   
    99   90   91 ar  
   100   90  100 1   
   101   91   92 1   
   102   92  101 1   
   103  102  103 1   
   104  102  110 1   
   105  103  104 1   
   106  103  106 1   
   107  103  111 1   
   108  104  105 2   
   109  104  121 1   
   110  106  107 1   
   111  106  108 1   
   112  106  112 1   
   113  107  109 1   
   114  107  113 1   
   115  107  114 1   
   116  108  115 1   
   117  108  116 1   
   118  108  117 1   
   119  109  118 1   
   120  109  119 1   
   121  109  120 1   
   122  121  122 1   
   123  121  127 1   
   124  122  123 1   
   125  122  125 1   
   126  122  128 1   
   127  123  124 2   
   128  123  132 1   
   129  125  126 1   
   130  125  129 1   
   131  125  130 1   
   132  126  131 1   
   133  132  133 1   
   134  132  137 1   
   135  133  134 1   
   136  133  136 1   
   137  133  138 1   
   138  134  135 2   
   139  134  142 1   
   140  136  139 1   
   141  136  140 1   
   142  136  141 1   
   143  142  143 1   
   144  142  147 1   
   145  143  144 1   
   146  143  146 1   
   147  143  148 1   
   148  144  145 2   
   149  144  152 1   
   150  146  149 1   
   151  146  150 1   
   152  146  151 1   
   153  152  153 1   
   154  152  161 1   
   155  153  154 1   
   156  153  156 1   
   157  153  162 1   
   158  154  155 2   
   159  154  167 1   
   160  156  157 1   
   161  156  163 1   
   162  156  164 1   
   163  157  158 1   
   164  157  165 1   
   165  157  166 1   
   166  158  159 1   
   167  158  160 1   
   168  167  168 1   
   169  167  172 1   
   170  168  169 1   
   171  168  170 1   
   172  168  171 1   
   173  174  175 1   
   174  174  176 1   
   175  177  178 1   
   176  177  179 1   
   177  180  181 1   
   178  180  182 1   
   179  183  184 1   
   180  183  185 1   
   181  186  187 1   
   182  186  188 1   
   183  189  190 1   
   184  189  191 1   
@<TRIPOS>SUBSTRUCTURE
     1 MOL         1 TEMP              0 ****  ****    0 ROOT
