@<TRIPOS>MOLECULE
MOL
  178   175     1     0     0
SMALL
resp


@<TRIPOS>ATOM
      1 C1          0.4950    6.8100   -1.9670 c3        1 MOL     -0.338084
      2 C2          1.9650    6.5750   -1.4350 c         1 MOL      0.737661
      3 O1          2.3190    7.1550   -0.3910 o         1 MOL     -0.606204
      4 H1          0.4970    7.6300   -2.6850 hc        1 MOL      0.082016
      5 H2          0.1350    5.9030   -2.4540 hc        1 MOL      0.082016
      6 H3         -0.1590    7.0590   -1.1320 hc        1 MOL      0.082016
      7 N1          2.7480    5.7710   -2.1530 n         1 MOL     -0.705313
      8 C3          4.0430    5.3200   -1.7130 c3        1 MOL      0.395238
      9 C4          3.8140    4.4970   -0.4250 c         1 MOL      0.693307
     10 O2          2.9470    3.5530   -0.3670 o         1 MOL     -0.710494
     11 C5          4.8490    4.6260   -2.8440 c3        1 MOL     -0.271881
     12 C6          6.2830    4.2480   -2.3880 c         1 MOL      0.664052
     13 O3          7.0070    5.1300   -1.8840 o         1 MOL     -0.710612
     14 O4          6.5380    3.0390   -2.2040 o         1 MOL     -0.710612
     15 H4          2.4180    5.3560   -3.0230 hn        1 MOL      0.323412
     16 H5          4.7470    6.1400   -1.5210 h1        1 MOL     -0.031956
     17 H6          4.9290    5.2940   -3.6990 hc        1 MOL      0.020291
     18 H7          4.2850    3.7460   -3.1560 hc        1 MOL      0.020291
     19 N2          4.5800    4.8510    0.5830 n         1 MOL     -0.601473
     20 C7          4.7310    3.9900    1.8280 c3        1 MOL      0.458078
     21 C8          3.3910    3.8400    2.6470 c         1 MOL      0.414784
     22 O5          2.5600    4.7730    2.6950 o         1 MOL     -0.546947
     23 C9          5.8730    4.5490    2.6260 c3        1 MOL     -0.402266
     24 H8          5.0960    5.7100    0.5350 hn        1 MOL      0.316559
     25 H9          5.0930    3.0230    1.4660 h1        1 MOL      0.078623
     26 H10         6.7480    4.7200    2.0010 hc        1 MOL      0.097491
     27 H11         5.5730    5.4340    3.1830 hc        1 MOL      0.097491
     28 H12         6.2240    3.7990    3.3340 hc        1 MOL      0.097491
     29 N3          3.1400    2.7580    3.3250 n         1 MOL     -0.320807
     30 C10         4.0270    1.6790    3.6770 c3        1 MOL     -0.037193
     31 C11         4.2560    0.7540    2.5270 c         1 MOL      0.007711
     32 O6          3.5180    0.7310    1.5450 o         1 MOL     -0.263889
     33 C12         3.6740    0.9780    4.9950 c3        1 MOL     -0.170029
     34 C13         2.1990    0.4060    5.0990 c         1 MOL      0.680900
     35 O7          1.5620    0.0730    4.0460 o         1 MOL     -0.668885
     36 O8          1.6800    0.1870    6.2150 o         1 MOL     -0.668885
     37 H13         2.2830    2.8450    3.8440 hn        1 MOL      0.267590
     38 H14         5.0230    2.0970    3.8660 h1        1 MOL      0.069792
     39 H15         3.6450    1.6830    5.8320 hc        1 MOL      0.057410
     40 H16         4.4080    0.2240    5.2540 hc        1 MOL      0.057410
     41 N4          5.3000   -0.1010    2.6270 n         1 MOL     -0.260402
     42 C14         5.8580   -1.0140    1.6300 c3        1 MOL     -0.073082
     43 C15         6.6990   -0.2810    0.5890 c         1 MOL      0.532421
     44 O9          6.7040    0.9520    0.5380 o         1 MOL     -0.454898
     45 H17         5.8820   -0.1240    3.4460 hn        1 MOL      0.291290
     46 H18         5.0700   -1.5320    1.0870 h1        1 MOL      0.060976
     47 H19         6.5030   -1.7460    2.1050 h1        1 MOL      0.060976
     48 N5          7.2830   -1.0000   -0.3900 n         1 MOL     -0.652890
     49 C16         7.1760   -2.4230   -0.6330 c3        1 MOL      0.398589
     50 C17         6.1450   -2.7810   -1.6980 c         1 MOL      0.491515
     51 O10         6.2980   -3.7740   -2.3600 o         1 MOL     -0.505246
     52 C18         8.5840   -2.9310   -0.9580 c3        1 MOL     -0.409325
     53 C19         8.8020   -4.4260   -0.6200 c         1 MOL      0.659417
     54 N6          9.2760   -5.2690   -1.5800 n         1 MOL     -0.801784
     55 O11         8.5320   -4.7930    0.5200 o         1 MOL     -0.536989
     56 H20         7.9900   -0.4890   -0.9090 hn        1 MOL      0.349467
     57 H21         6.7480   -2.8590    0.2750 h1        1 MOL     -0.002139
     58 H22         9.2920   -2.4040   -0.3110 hc        1 MOL      0.114472
     59 H23         8.7880   -2.6980   -2.0020 hc        1 MOL      0.114472
     60 H24         9.4620   -4.8980   -2.5020 hn        1 MOL      0.370659
     61 H25         9.5830   -6.1960   -1.3000 hn        1 MOL      0.370659
     62 N7          5.1460   -1.8670   -1.8890 n         1 MOL     -0.396046
     63 C20         4.2210   -1.8340   -3.0570 c3        1 MOL     -0.314708
     64 C21         3.1620   -2.8780   -3.1160 c         1 MOL      0.604765
     65 O12         2.6280   -3.1880   -4.1710 o         1 MOL     -0.549911
     66 H26         5.1600   -1.0550   -1.3010 hn        1 MOL      0.334093
     67 H27         4.8130   -1.9210   -3.9630 h1        1 MOL      0.158297
     68 H28         3.8240   -0.8160   -3.0670 h1        1 MOL      0.158297
     69 N8          2.8620   -3.4750   -1.9450 n         1 MOL     -0.309463
     70 C22         1.6920   -4.2680   -1.6800 c3        1 MOL     -0.207371
     71 C23         0.5510   -3.4810   -1.1120 c         1 MOL      0.623174
     72 O13         0.6860   -2.5580   -0.2970 o         1 MOL     -0.515444
     73 C24         2.0790   -5.3930   -0.7560 c3        1 MOL      0.466270
     74 C25         3.1650   -6.2650   -1.4010 c3        1 MOL     -0.427875
     75 O14         2.5640   -5.0550    0.5620 oh        1 MOL     -0.653753
     76 H29         3.1930   -3.0130   -1.1110 hn        1 MOL      0.232056
     77 H30         1.3870   -4.7570   -2.5970 h1        1 MOL      0.100574
     78 H31         1.1790   -6.0020   -0.6200 h1        1 MOL     -0.025477
     79 H32         1.8050   -5.0300    1.1510 ho        1 MOL      0.427906
     80 H33         3.0250   -6.4800   -2.4560 hc        1 MOL      0.114206
     81 H34         4.1050   -5.7560   -1.2150 hc        1 MOL      0.114206
     82 H35         3.2170   -7.2660   -0.9740 hc        1 MOL      0.114206
     83 N9         -0.6280   -3.8400   -1.5380 n         1 MOL     -0.402267
     84 C26        -1.8850   -3.1880   -1.3010 c3        1 MOL     -0.274505
     85 C27        -2.4330   -3.5670    0.0340 c         1 MOL      0.532820
     86 O15        -2.4540   -4.7840    0.3630 o         1 MOL     -0.564619
     87 C28        -2.9270   -3.4840   -2.4250 c3        1 MOL      0.301299
     88 C29        -4.2430   -2.6930   -2.2070 c3        1 MOL     -0.017624
     89 C30        -2.3570   -3.1720   -3.8230 c3        1 MOL     -0.395138
     90 C31        -5.3990   -3.0890   -3.2090 c3        1 MOL     -0.123357
     91 H36        -0.6860   -4.6780   -2.0980 hn        1 MOL      0.288291
     92 H37        -1.8060   -2.1130   -1.2020 h1        1 MOL      0.169201
     93 H38        -3.1740   -4.5510   -2.4310 hc        1 MOL     -0.011875
     94 H39        -4.1230   -1.6210   -2.4040 hc        1 MOL      0.001906
     95 H40        -4.6560   -2.8440   -1.2090 hc        1 MOL      0.001906
     96 H41        -3.0980   -2.9790   -4.5890 hc        1 MOL      0.092696
     97 H42        -1.9140   -2.1860   -3.7440 hc        1 MOL      0.092696
     98 H43        -1.5980   -3.9140   -4.0840 hc        1 MOL      0.092696
     99 H44        -5.2340   -2.8880   -4.2740 hc        1 MOL      0.018229
    100 H45        -5.5570   -4.1670   -3.1390 hc        1 MOL      0.018229
    101 H46        -6.3480   -2.6260   -2.9520 hc        1 MOL      0.018229
    102 N10        -2.9140   -2.5440    0.7450 n         1 MOL     -0.312779
    103 C32        -3.6650   -2.6050    2.0770 c3        1 MOL      0.030175
    104 C33        -5.1420   -2.0790    2.0660 c         1 MOL      0.380367
    105 O16        -5.8250   -2.2580    3.0550 o         1 MOL     -0.528936
    106 C34        -2.8370   -2.1170    3.2760 c3        1 MOL     -0.013630
    107 C35        -1.5000   -2.6350    3.2720 c         1 MOL      0.696481
    108 O17        -1.2530   -3.7940    3.7420 o         1 MOL     -0.718632
    109 O18        -0.5220   -1.9700    2.8360 o         1 MOL     -0.718632
    110 H47        -2.7570   -1.6070    0.4170 hn        1 MOL      0.217583
    111 H48        -3.8340   -3.6440    2.3640 h1        1 MOL      0.075483
    112 H49        -3.3770   -2.5230    4.1280 hc        1 MOL     -0.005417
    113 H50        -2.7500   -1.0290    3.2360 hc        1 MOL     -0.005417
    114 N11        -5.4960   -1.3320    1.0500 n         1 MOL     -0.273526
    115 C36        -6.7260   -0.5580    0.8790 c3        1 MOL      0.261987
    116 C37        -6.5010    0.8430    0.2310 c         1 MOL      0.232627
    117 O19        -6.9550    1.0620   -0.9190 o         1 MOL     -0.520908
    118 C38        -7.8230   -1.3630    0.1750 c3        1 MOL     -0.165895
    119 C39        -9.2260   -1.1590    0.6110 ca        1 MOL      0.063850
    120 C40       -10.0560   -0.2940   -0.0970 ca        1 MOL     -0.121247
    121 C41        -9.6270   -1.8450    1.7440 ca        1 MOL     -0.121247
    122 C42       -11.3840   -0.0630    0.3380 ca        1 MOL     -0.150313
    123 C43       -10.9430   -1.6900    2.1330 ca        1 MOL     -0.150313
    124 C44       -11.8520   -0.7900    1.4380 ca        1 MOL     -0.126833
    125 H51        -4.7940   -1.2440    0.3250 hn        1 MOL      0.205851
    126 H52        -7.1080   -0.4630    1.8870 h1        1 MOL      0.014981
    127 H53        -7.6720   -2.4370    0.3140 hc        1 MOL      0.064147
    128 H54        -7.7350   -1.2540   -0.9080 hc        1 MOL      0.064147
    129 H55        -9.6620    0.2240   -0.9520 ha        1 MOL      0.127311
    130 H56        -9.0760   -2.5590    2.3360 ha        1 MOL      0.127311
    131 H57       -12.0600    0.5050   -0.2890 ha        1 MOL      0.108558
    132 H58       -11.2170   -2.0740    3.0970 ha        1 MOL      0.108558
    133 H59       -12.8780   -0.6790    1.7330 ha        1 MOL      0.097261
    134 N12        -5.7480    1.7220    0.8910 n         1 MOL      0.027542
    135 C45        -5.6770    3.1690    0.4310 c3        1 MOL     -0.077680
    136 C46        -4.9600    3.4570   -0.9220 c         1 MOL      0.249034
    137 O20        -5.1550    4.4850   -1.5240 o         1 MOL     -0.474752
    138 C47        -5.0870    3.9470    1.5670 c3        1 MOL     -0.094159
    139 C48        -5.2790    2.9600    2.7360 c3        1 MOL     -0.087613
    140 C49        -5.1760    1.5330    2.2240 c3        1 MOL      0.034794
    141 H60        -6.7060    3.5190    0.3230 h1        1 MOL      0.108870
    142 H61        -4.0290    4.1030    1.3500 hc        1 MOL      0.077576
    143 H62        -5.5560    4.8960    1.8230 hc        1 MOL      0.077576
    144 H63        -4.5240    3.0610    3.5110 hc        1 MOL      0.024358
    145 H64        -6.3230    3.0580    3.0410 hc        1 MOL      0.024358
    146 H65        -4.1480    1.1740    2.1320 h1        1 MOL      0.059906
    147 H66        -5.7950    0.8800    2.8400 h1        1 MOL      0.059906
    148 N13        -4.1860    2.4790   -1.4040 n         1 MOL      0.077384
    149 C50        -3.5350    2.5150   -2.6910 c3        1 MOL     -0.313264
    150 C51        -4.5250    2.6010   -3.8990 c         1 MOL      0.490531
    151 O21        -4.3920    3.4760   -4.7540 o         1 MOL     -0.542935
    152 C52        -2.6040    1.2990   -2.9150 c3        1 MOL      0.121473
    153 C53        -1.5740    1.1440   -1.8200 c3        1 MOL     -0.094933
    154 C54        -2.0200    0.3720   -0.5710 c         1 MOL      0.642142
    155 O22        -1.2560    0.0620    0.3550 o         1 MOL     -0.666448
    156 O23        -3.2310    0.1370   -0.3840 o         1 MOL     -0.666448
    157 H67        -4.1840    1.6300   -0.8550 hn        1 MOL      0.124734
    158 H68        -2.9040    3.4070   -2.7570 h1        1 MOL      0.134468
    159 H69        -2.0360    1.3600   -3.8360 hc        1 MOL     -0.018274
    160 H70        -3.2230    0.4010   -2.9840 hc        1 MOL     -0.018274
    161 H71        -1.3420    2.1590   -1.5110 hc        1 MOL      0.019750
    162 H72        -0.7350    0.6110   -2.2540 hc        1 MOL      0.019750
    163 N14        -5.4990    1.6960   -3.9060 n         1 MOL     -0.189703
    164 C55        -6.5790    1.6240   -4.8550 c3        1 MOL     -0.151953
    165 H73        -6.4230    2.3650   -5.6390 h1        1 MOL      0.072170
    166 H74        -6.6090    0.6280   -5.2980 h1        1 MOL      0.072170
    167 H75        -7.5240    1.8260   -4.3490 h1        1 MOL      0.072170
    168 H76        -5.4790    1.0260   -3.1490 hn        1 MOL      0.240581
    169 Ca1         1.0290   -0.3700    1.5170 Ca        1 MOL      1.671210
    170 O24         0.8460    2.2820    1.1240 oh        1 MOL     -0.895949
    171 H77         0.4920    3.0790    1.5120 ho        1 MOL      0.432967
    172 H78         1.4900    2.5880    0.4900 ho        1 MOL      0.432967
    173 O25         2.6040   -2.3580    1.9900 oh        1 MOL     -0.895949
    174 H79         2.6790   -3.2170    1.5830 ho        1 MOL      0.432967
    175 H80         3.2780   -2.3600    2.6780 ho        1 MOL      0.432967
    176 O26         1.9980    0.2360   -0.8730 oh        1 MOL     -0.895949
    177 H81         1.4990    0.8840   -1.3570 ho        1 MOL      0.432967
    178 H82         2.9100    0.4640   -1.0150 ho        1 MOL      0.432967
@<TRIPOS>BOND
     1    1    2 1   
     2    1    4 1   
     3    1    5 1   
     4    1    6 1   
     5    2    3 2   
     6    2    7 1   
     7    7    8 1   
     8    7   15 1   
     9    8    9 1   
    10    8   11 1   
    11    8   16 1   
    12    9   10 2   
    13    9   19 1   
    14   11   12 1   
    15   11   17 1   
    16   11   18 1   
    17   12   13 1   
    18   12   14 1   
    19   19   20 1   
    20   19   24 1   
    21   20   21 1   
    22   20   23 1   
    23   20   25 1   
    24   21   22 2   
    25   21   29 1   
    26   23   26 1   
    27   23   27 1   
    28   23   28 1   
    29   29   30 1   
    30   29   37 1   
    31   30   31 1   
    32   30   33 1   
    33   30   38 1   
    34   31   32 2   
    35   31   41 1   
    36   33   34 1   
    37   33   39 1   
    38   33   40 1   
    39   34   35 1   
    40   34   36 1   
    41   41   42 1   
    42   41   45 1   
    43   42   43 1   
    44   42   46 1   
    45   42   47 1   
    46   43   44 2   
    47   43   48 1   
    48   48   49 1   
    49   48   56 1   
    50   49   50 1   
    51   49   52 1   
    52   49   57 1   
    53   50   51 2   
    54   50   62 1   
    55   52   53 1   
    56   52   58 1   
    57   52   59 1   
    58   53   54 1   
    59   53   55 2   
    60   54   60 1   
    61   54   61 1   
    62   62   63 1   
    63   62   66 1   
    64   63   64 1   
    65   63   67 1   
    66   63   68 1   
    67   64   65 2   
    68   64   69 1   
    69   69   70 1   
    70   69   76 1   
    71   70   71 1   
    72   70   73 1   
    73   70   77 1   
    74   71   72 2   
    75   71   83 1   
    76   73   74 1   
    77   73   75 1   
    78   73   78 1   
    79   74   80 1   
    80   74   81 1   
    81   74   82 1   
    82   75   79 1   
    83   83   84 1   
    84   83   91 1   
    85   84   85 1   
    86   84   87 1   
    87   84   92 1   
    88   85   86 2   
    89   85  102 1   
    90   87   88 1   
    91   87   89 1   
    92   87   93 1   
    93   88   90 1   
    94   88   94 1   
    95   88   95 1   
    96   89   96 1   
    97   89   97 1   
    98   89   98 1   
    99   90   99 1   
   100   90  100 1   
   101   90  101 1   
   102  102  103 1   
   103  102  110 1   
   104  103  104 1   
   105  103  106 1   
   106  103  111 1   
   107  104  105 2   
   108  104  114 1   
   109  106  107 1   
   110  106  112 1   
   111  106  113 1   
   112  107  108 1   
   113  107  109 1   
   114  114  115 1   
   115  114  125 1   
   116  115  116 1   
   117  115  118 1   
   118  115  126 1   
   119  116  117 2   
   120  116  134 1   
   121  118  119 1   
   122  118  127 1   
   123  118  128 1   
   124  119  120 ar  
   125  119  121 ar  
   126  120  122 ar  
   127  120  129 1   
   128  121  123 ar  
   129  121  130 1   
   130  122  124 ar  
   131  122  131 1   
   132  123  124 ar  
   133  123  132 1   
   134  124  133 1   
   135  134  135 1   
   136  134  140 1   
   137  135  136 1   
   138  135  138 1   
   139  135  141 1   
   140  136  137 2   
   141  136  148 1   
   142  138  139 1   
   143  138  142 1   
   144  138  143 1   
   145  139  140 1   
   146  139  144 1   
   147  139  145 1   
   148  140  146 1   
   149  140  147 1   
   150  148  149 1   
   151  148  157 1   
   152  149  150 1   
   153  149  152 1   
   154  149  158 1   
   155  150  151 2   
   156  150  163 1   
   157  152  153 1   
   158  152  159 1   
   159  152  160 1   
   160  153  154 1   
   161  153  161 1   
   162  153  162 1   
   163  154  155 1   
   164  154  156 1   
   165  163  164 1   
   166  163  168 1   
   167  164  165 1   
   168  164  166 1   
   169  164  167 1   
   170  170  171 1   
   171  170  172 1   
   172  173  174 1   
   173  173  175 1   
   174  176  177 1   
   175  176  178 1   
@<TRIPOS>SUBSTRUCTURE
     1 MOL         1 TEMP              0 ****  ****    0 ROOT
