@<TRIPOS>MOLECULE
MOL
  195   189     1     0     0
SMALL
resp


@<TRIPOS>ATOM
      1 C1         -3.2610   -4.3250    2.2780 c3        1 MOL     -0.279146
      2 C2         -2.1740   -4.2770    1.1280 c         1 MOL      0.901843
      3 O1         -1.8490   -3.1490    0.6780 o         1 MOL     -0.585466
      4 H1         -4.0090   -5.0800    2.0390 hc        1 MOL      0.016317
      5 H2         -2.7800   -4.5780    3.2230 hc        1 MOL      0.016317
      6 H3         -3.7430   -3.3510    2.3640 hc        1 MOL      0.016317
      7 N1         -1.6120   -5.4140    0.7210 n         1 MOL     -0.686085
      8 C3         -0.5180   -5.5640   -0.3080 c3        1 MOL     -0.168566
      9 C4          0.7250   -4.7520    0.2130 c         1 MOL      0.720613
     10 O2          1.5950   -4.5310   -0.6680 o         1 MOL     -0.525133
     11 C5         -1.0430   -5.1990   -1.6800 c3        1 MOL     -0.443514
     12 C6         -2.5320   -5.5720   -1.9360 c         1 MOL      0.798744
     13 O3         -2.8360   -6.7730   -2.0080 o         1 MOL     -0.680605
     14 O4         -3.3410   -4.7100   -2.4220 o         1 MOL     -0.680605
     15 H4         -1.8860   -6.2670    1.1740 hn        1 MOL      0.369550
     16 H5         -0.3600   -6.6490   -0.3060 h1        1 MOL      0.156717
     17 H6         -0.4240   -5.5390   -2.5120 hc        1 MOL      0.161155
     18 H7         -1.0200   -4.1240   -1.8830 hc        1 MOL      0.161155
     19 N2          0.8870   -4.4020    1.5210 n         1 MOL     -0.493369
     20 C7          2.0610   -3.6830    2.0670 c3        1 MOL     -0.086602
     21 C8          3.1790   -4.7010    2.2570 c         1 MOL      0.466149
     22 O5          2.9790   -5.8520    2.5720 o         1 MOL     -0.586267
     23 C9          1.6370   -2.9880    3.3360 c3        1 MOL      0.157796
     24 C10         0.8570   -3.9140    4.3490 c3        1 MOL      0.460749
     25 C11         0.8140   -1.6480    3.0820 c3        1 MOL     -0.382750
     26 C12         0.5380   -3.3700    5.7620 c3        1 MOL     -0.277325
     27 H8          0.1190   -4.4740    2.1800 hn        1 MOL      0.219197
     28 H9          2.4500   -2.9210    1.3790 h1        1 MOL      0.082575
     29 H10         2.4630   -2.5870    3.9320 hc        1 MOL     -0.006634
     30 H11         1.5610   -4.7230    4.5510 hc        1 MOL     -0.100650
     31 H12        -0.0310   -4.3690    3.9040 hc        1 MOL     -0.100650
     32 H13         0.6940   -1.2410    4.0870 hc        1 MOL      0.085340
     33 H14         1.2980   -1.0090    2.3520 hc        1 MOL      0.085340
     34 H15        -0.2000   -1.7880    2.7200 hc        1 MOL      0.085340
     35 H16         1.5040   -3.3180    6.2570 hc        1 MOL      0.044466
     36 H17         0.0660   -2.3950    5.6650 hc        1 MOL      0.044466
     37 H18         0.0190   -4.0460    6.4400 hc        1 MOL      0.044466
     38 N3          4.4060   -4.3500    2.2580 n         1 MOL     -0.292359
     39 C13         5.0140   -3.0660    1.8550 c3        1 MOL     -0.051457
     40 C14         5.3050   -3.0230    0.3690 c         1 MOL      0.536130
     41 O6          4.9720   -2.0310   -0.2330 o         1 MOL     -0.531143
     42 C15         6.2010   -2.7650    2.7420 c3        1 MOL     -0.326377
     43 C16         7.3170   -3.9280    2.8730 c         1 MOL      0.716726
     44 O7          7.0350   -5.0860    2.4460 o         1 MOL     -0.661445
     45 O8          8.3420   -3.8110    3.5210 o         1 MOL     -0.661445
     46 H19         5.0490   -5.1260    2.2320 hn        1 MOL      0.246068
     47 H20         4.3470   -2.2340    2.0540 h1        1 MOL      0.097422
     48 H21         5.7940   -2.6900    3.7490 hc        1 MOL      0.084368
     49 H22         6.6430   -1.8220    2.4320 hc        1 MOL      0.084368
     50 N4          5.9140   -4.0360   -0.2720 n         1 MOL     -0.220492
     51 C17         6.1860   -4.1760   -1.6320 c3        1 MOL     -0.197183
     52 C18         7.2680   -3.2110   -2.1020 c         1 MOL      0.466328
     53 O9          8.4630   -3.4940   -2.0190 o         1 MOL     -0.563193
     54 H23         6.2170   -4.7690    0.3470 hn        1 MOL      0.212704
     55 H24         5.2980   -3.9730   -2.2270 h1        1 MOL      0.103494
     56 H25         6.4540   -5.2050   -1.8540 h1        1 MOL      0.103494
     57 N5          6.8670   -2.0570   -2.6310 n         1 MOL     -0.271369
     58 C19         7.5940   -0.8960   -3.2020 c3        1 MOL     -0.148897
     59 C20         8.1530    0.0720   -2.1060 c         1 MOL      0.491221
     60 O10         9.0220    0.9360   -2.3310 o         1 MOL     -0.563259
     61 C21         6.5990   -0.1350   -4.0400 c3        1 MOL     -0.133440
     62 C22         5.2460    0.1970   -3.3150 c         1 MOL      0.632791
     63 O11         5.2690    1.1660   -2.5400 o         1 MOL     -0.666293
     64 O12         4.3540   -0.6520   -3.4340 o         1 MOL     -0.666293
     65 H26         5.8570   -2.0590   -2.7270 hn        1 MOL      0.242250
     66 H27         8.4600   -1.1910   -3.8100 h1        1 MOL      0.117273
     67 H28         6.2480   -0.6920   -4.9210 hc        1 MOL      0.018468
     68 H29         7.0660    0.7400   -4.4940 hc        1 MOL      0.018468
     69 N6          7.6660   -0.1190   -0.8360 n         1 MOL     -0.069410
     70 C23         8.0670    0.5420    0.3820 c3        1 MOL     -0.382948
     71 C24         7.6680    2.0400    0.5670 c         1 MOL      0.750671
     72 O13         7.9390    2.6350    1.6020 o         1 MOL     -0.621284
     73 H30         7.0320   -0.8830   -0.6310 hn        1 MOL      0.218339
     74 H31         9.1400    0.4390    0.4940 h1        1 MOL      0.118036
     75 H32         7.5830   -0.0730    1.1460 h1        1 MOL      0.118036
     76 N7          6.9370    2.4900   -0.4810 n         1 MOL     -0.454880
     77 C25         6.4060    3.8370   -0.6180 c3        1 MOL      0.272437
     78 C26         5.4060    4.1680    0.5930 c         1 MOL      0.175638
     79 O14         5.0880    5.3360    0.6770 o         1 MOL     -0.488322
     80 C27         7.5220    4.8210   -0.9560 c3        1 MOL     -0.099992
     81 C28         8.2850    4.5010   -2.2500 c3        1 MOL     -0.196316
     82 C29         9.1870    5.6350   -2.8080 c         1 MOL      0.681823
     83 N8          9.8390    5.4480   -3.9270 n         1 MOL     -0.814115
     84 O15         9.4290    6.6780   -2.2470 o         1 MOL     -0.584567
     85 H33         6.9000    1.8780   -1.2760 hn        1 MOL      0.199783
     86 H34         5.7380    3.7860   -1.4720 h1        1 MOL      0.056368
     87 H35         8.2600    4.8310   -0.1500 hc        1 MOL      0.046226
     88 H36         7.0820    5.8160   -1.0150 hc        1 MOL      0.046226
     89 H37         7.6080    4.2280   -3.0550 hc        1 MOL      0.076461
     90 H38         8.9140    3.6320   -2.0470 hc        1 MOL      0.076461
     91 H39         9.7100    4.5320   -4.3170 hn        1 MOL      0.356671
     92 H40        10.3760    6.2330   -4.2720 hn        1 MOL      0.356671
     93 N9          4.9010    3.2860    1.4500 n         1 MOL      0.055213
     94 C30         3.8000    3.4140    2.5140 c3        1 MOL     -0.121084
     95 C31         2.3370    3.3000    2.0250 c         1 MOL      0.498460
     96 O16         1.4570    3.8600    2.6800 o         1 MOL     -0.525726
     97 C32         4.1650    2.5610    3.7420 c3        1 MOL      0.303721
     98 C33         4.1530    1.0770    3.3050 c3        1 MOL     -0.386021
     99 C34         5.4050    2.9660    4.4970 c3        1 MOL     -0.386021
    100 H41         5.1240    2.3080    1.3070 hn        1 MOL      0.096034
    101 H42         3.8060    4.4010    2.9740 h1        1 MOL      0.067581
    102 H43         3.2850    2.6540    4.3760 hc        1 MOL     -0.034422
    103 H44         5.1040    0.9550    2.7930 hc        1 MOL      0.093061
    104 H45         4.0220    0.4130    4.1670 hc        1 MOL      0.093061
    105 H46         3.2790    0.9100    2.6680 hc        1 MOL      0.093061
    106 H47         5.3890    4.0280    4.7310 hc        1 MOL      0.093061
    107 H48         5.5120    2.3690    5.4030 hc        1 MOL      0.093061
    108 H49         6.2210    2.9740    3.7740 hc        1 MOL      0.093061
    109 N10         2.0190    2.5140    1.0060 n         1 MOL     -0.291874
    110 C35         0.6770    2.0690    0.5540 c3        1 MOL      0.065119
    111 C36        -0.1790    3.1900    0.0470 c         1 MOL      0.409494
    112 O17         0.2820    4.2850   -0.4010 o         1 MOL     -0.539149
    113 C37         0.8670    0.8600   -0.3460 c3        1 MOL      0.037715
    114 C38        -0.2730   -0.2120   -0.2290 c         1 MOL      0.552442
    115 N11        -0.1110   -1.3820   -0.7570 n         1 MOL     -0.536709
    116 O18        -1.3540    0.0440    0.3280 o         1 MOL     -0.523712
    117 H50         2.7800    2.1320    0.4600 hn        1 MOL      0.174036
    118 H51         0.1630    1.9010    1.5000 h1        1 MOL      0.039783
    119 H52         1.7660    0.3340   -0.0110 hc        1 MOL      0.025367
    120 H53         1.0750    0.9350   -1.4150 hc        1 MOL      0.025367
    121 H54         0.7420   -1.6000   -1.2550 hn        1 MOL      0.294541
    122 H55        -0.7300   -2.1210   -0.4650 hn        1 MOL      0.294541
    123 N12        -1.4690    2.9700   -0.1500 n         1 MOL     -0.221359
    124 C39        -2.4730    3.9570   -0.7610 c3        1 MOL      0.101234
    125 C40        -3.8730    3.7530   -0.2020 c         1 MOL      0.516003
    126 O19        -4.0460    2.7870    0.5370 o         1 MOL     -0.526624
    127 C41        -2.4430    3.7030   -2.2860 c3        1 MOL     -0.221470
    128 C42        -3.0990    2.4680   -2.8370 ca        1 MOL      0.245289
    129 C43        -4.4430    2.5640   -3.3770 ca        1 MOL     -0.355467
    130 C44        -2.4660    1.2330   -2.6990 ca        1 MOL     -0.355467
    131 C45        -5.0950    1.3450   -3.7000 ca        1 MOL      0.008884
    132 C46        -3.0350    0.0350   -3.0850 ca        1 MOL      0.008884
    133 C47        -4.3550    0.1240   -3.6220 ca        1 MOL      0.024638
    134 O20        -4.9250   -0.9950   -4.0320 oh        1 MOL     -0.374102
    135 H56        -1.8320    2.1580    0.3290 hn        1 MOL      0.175890
    136 H57        -2.0990    4.9210   -0.4380 h1        1 MOL      0.072584
    137 H58        -1.4240    3.4180   -2.5510 hc        1 MOL      0.051328
    138 H59        -2.7600    4.5930   -2.8340 hc        1 MOL      0.051328
    139 H60        -4.8760    3.5390   -3.5490 ha        1 MOL      0.155218
    140 H61        -1.5150    1.1920   -2.1890 ha        1 MOL      0.155218
    141 H62        -6.0960    1.3770   -4.1010 ha        1 MOL      0.078766
    142 H63        -2.4530   -0.8610   -2.9640 ha        1 MOL      0.078766
    143 H64        -5.8370   -0.8220   -4.2860 ho        1 MOL      0.330265
    144 N13        -4.7930    4.6820   -0.5170 n         1 MOL     -0.539488
    145 C48        -6.1290    4.6810    0.1280 c3        1 MOL      0.582714
    146 C49        -7.1810    4.3130   -0.9490 c         1 MOL      0.511844
    147 O21        -7.3440    5.0620   -1.8740 o         1 MOL     -0.591755
    148 C50        -6.4410    6.0210    0.8830 c3        1 MOL     -0.610391
    149 C51        -5.3980    6.4230    1.9510 c3        1 MOL      0.040837
    150 C52        -5.8920    7.6640    2.7320 c         1 MOL      0.693576
    151 O22        -5.3430    8.7850    2.5980 o         1 MOL     -0.648806
    152 O23        -6.6340    7.4740    3.7110 o         1 MOL     -0.648806
    153 H65        -4.6020    5.4470   -1.1400 hn        1 MOL      0.303824
    154 H66        -6.1090    4.0340    1.0050 h1        1 MOL     -0.102405
    155 H67        -7.3810    5.7750    1.3800 hc        1 MOL      0.148336
    156 H68        -6.5580    6.7550    0.0850 hc        1 MOL      0.148336
    157 H69        -4.3870    6.5050    1.5670 hc        1 MOL      0.006590
    158 H70        -5.3470    5.5960    2.6530 hc        1 MOL      0.006590
    159 N14        -7.8610    3.1620   -0.8860 n         1 MOL     -0.517450
    160 C53        -7.5740    2.1230    0.1120 c3        1 MOL     -0.048572
    161 C54        -8.2090    2.5350    1.4240 c         1 MOL      0.337312
    162 O24        -9.3130    3.0610    1.4720 o         1 MOL     -0.504506
    163 C55        -8.2080    0.7650   -0.3750 c3        1 MOL      0.210864
    164 C56        -7.5240    0.2160   -1.6420 c3        1 MOL     -0.505228
    165 C57        -8.0640   -1.1180   -2.0990 c         1 MOL      0.631779
    166 O25        -7.7430   -2.1010   -1.4050 o         1 MOL     -0.590996
    167 O26        -8.7060   -1.1900   -3.1480 o         1 MOL     -0.590996
    168 H71        -8.4670    2.9200   -1.6620 hn        1 MOL      0.357214
    169 H72        -6.4840    2.0450    0.1900 h1        1 MOL      0.088334
    170 H73        -9.2810    0.7900   -0.5570 hc        1 MOL     -0.032960
    171 H74        -8.0790    0.0040    0.3970 hc        1 MOL     -0.032960
    172 H75        -6.4620    0.1830   -1.4260 hc        1 MOL      0.127072
    173 H76        -7.8480    0.8720   -2.4460 hc        1 MOL      0.127072
    174 N15        -7.5240    2.3000    2.5740 n         1 MOL     -0.084600
    175 C58        -7.9640    2.5560    3.9980 c3        1 MOL     -0.114591
    176 H77        -8.8850    2.0070    4.1970 h1        1 MOL      0.062631
    177 H78        -7.1870    2.2210    4.6850 h1        1 MOL      0.062631
    178 H79        -8.1400    3.6230    4.1390 h1        1 MOL      0.062631
    179 H80        -6.6480    1.8000    2.5210 hn        1 MOL      0.198883
    180 Ca1        -7.3870   -4.3540   -0.2610 Ca        1 MOL      1.559323
    181 O27        -8.1880   -2.7610    1.8840 oh        1 MOL     -0.826193
    182 H81        -8.4590   -3.5120    2.4130 ho        1 MOL      0.380803
    183 H82        -8.5420   -2.0010    2.3400 ho        1 MOL      0.380803
    184 O28        -5.5160   -6.1450   -1.0100 oh        1 MOL     -0.826193
    185 H83        -5.4010   -7.0880   -0.9170 ho        1 MOL      0.380803
    186 H84        -4.7240   -5.8450   -1.4600 ho        1 MOL      0.380803
    187 O29        -9.9470   -4.1160   -0.1200 oh        1 MOL     -0.826193
    188 H85       -10.6870   -4.0470   -0.7220 ho        1 MOL      0.380803
    189 H86       -10.2810   -3.8140    0.7230 ho        1 MOL      0.380803
    190 O30        -8.1390   -5.1750   -2.7500 oh        1 MOL     -0.826193
    191 H87        -7.7280   -4.7370   -3.4950 ho        1 MOL      0.380803
    192 H88        -8.1840   -6.0960   -3.0230 ho        1 MOL      0.380803
    193 O31        -5.0740   -3.3080   -0.5640 oh        1 MOL     -0.826193
    194 H89        -4.6850   -2.4640   -0.3360 ho        1 MOL      0.380803
    195 H90        -4.4950   -3.6780   -1.2150 ho        1 MOL      0.380803
@<TRIPOS>BOND
     1    1    2 1   
     2    1    4 1   
     3    1    5 1   
     4    1    6 1   
     5    2    3 2   
     6    2    7 1   
     7    7    8 1   
     8    7   15 1   
     9    8    9 1   
    10    8   11 1   
    11    8   16 1   
    12    9   10 2   
    13    9   19 1   
    14   11   12 1   
    15   11   17 1   
    16   11   18 1   
    17   12   13 1   
    18   12   14 1   
    19   19   20 1   
    20   19   27 1   
    21   20   21 1   
    22   20   23 1   
    23   20   28 1   
    24   21   22 2   
    25   21   38 1   
    26   23   24 1   
    27   23   25 1   
    28   23   29 1   
    29   24   26 1   
    30   24   30 1   
    31   24   31 1   
    32   25   32 1   
    33   25   33 1   
    34   25   34 1   
    35   26   35 1   
    36   26   36 1   
    37   26   37 1   
    38   38   39 1   
    39   38   46 1   
    40   39   40 1   
    41   39   42 1   
    42   39   47 1   
    43   40   41 2   
    44   40   50 1   
    45   42   43 1   
    46   42   48 1   
    47   42   49 1   
    48   43   44 1   
    49   43   45 1   
    50   50   51 1   
    51   50   54 1   
    52   51   52 1   
    53   51   55 1   
    54   51   56 1   
    55   52   53 2   
    56   52   57 1   
    57   57   58 1   
    58   57   65 1   
    59   58   59 1   
    60   58   61 1   
    61   58   66 1   
    62   59   60 2   
    63   59   69 1   
    64   61   62 1   
    65   61   67 1   
    66   61   68 1   
    67   62   63 1   
    68   62   64 1   
    69   69   70 1   
    70   69   73 1   
    71   70   71 1   
    72   70   74 1   
    73   70   75 1   
    74   71   72 2   
    75   71   76 1   
    76   76   77 1   
    77   76   85 1   
    78   77   78 1   
    79   77   80 1   
    80   77   86 1   
    81   78   79 2   
    82   78   93 1   
    83   80   81 1   
    84   80   87 1   
    85   80   88 1   
    86   81   82 1   
    87   81   89 1   
    88   81   90 1   
    89   82   83 1   
    90   82   84 2   
    91   83   91 1   
    92   83   92 1   
    93   93   94 1   
    94   93  100 1   
    95   94   95 1   
    96   94   97 1   
    97   94  101 1   
    98   95   96 2   
    99   95  109 1   
   100   97   98 1   
   101   97   99 1   
   102   97  102 1   
   103   98  103 1   
   104   98  104 1   
   105   98  105 1   
   106   99  106 1   
   107   99  107 1   
   108   99  108 1   
   109  109  110 1   
   110  109  117 1   
   111  110  111 1   
   112  110  113 1   
   113  110  118 1   
   114  111  112 2   
   115  111  123 1   
   116  113  114 1   
   117  113  119 1   
   118  113  120 1   
   119  114  115 1   
   120  114  116 2   
   121  115  121 1   
   122  115  122 1   
   123  123  124 1   
   124  123  135 1   
   125  124  125 1   
   126  124  127 1   
   127  124  136 1   
   128  125  126 2   
   129  125  144 1   
   130  127  128 1   
   131  127  137 1   
   132  127  138 1   
   133  128  129 ar  
   134  128  130 ar  
   135  129  131 ar  
   136  129  139 1   
   137  130  132 ar  
   138  130  140 1   
   139  131  133 ar  
   140  131  141 1   
   141  132  133 ar  
   142  132  142 1   
   143  133  134 1   
   144  134  143 1   
   145  144  145 1   
   146  144  153 1   
   147  145  146 1   
   148  145  148 1   
   149  145  154 1   
   150  146  147 2   
   151  146  159 1   
   152  148  149 1   
   153  148  155 1   
   154  148  156 1   
   155  149  150 1   
   156  149  157 1   
   157  149  158 1   
   158  150  151 1   
   159  150  152 1   
   160  159  160 1   
   161  159  168 1   
   162  160  161 1   
   163  160  163 1   
   164  160  169 1   
   165  161  162 2   
   166  161  174 1   
   167  163  164 1   
   168  163  170 1   
   169  163  171 1   
   170  164  165 1   
   171  164  172 1   
   172  164  173 1   
   173  165  166 1   
   174  165  167 1   
   175  174  175 1   
   176  174  179 1   
   177  175  176 1   
   178  175  177 1   
   179  175  178 1   
   180  181  182 1   
   181  181  183 1   
   182  184  185 1   
   183  184  186 1   
   184  187  188 1   
   185  187  189 1   
   186  190  191 1   
   187  190  192 1   
   188  193  194 1   
   189  193  195 1   
@<TRIPOS>SUBSTRUCTURE
     1 MOL         1 TEMP              0 ****  ****    0 ROOT
