@<TRIPOS>MOLECULE
MOL
  195   189     1     0     0
SMALL
resp


@<TRIPOS>ATOM
      1 C1         -2.6500    2.8580   -3.0220 c3        1 MOL     -0.226573
      2 C2         -2.0470    3.3780   -1.6780 c         1 MOL      0.529118
      3 O1         -1.2300    2.6960   -1.0580 o         1 MOL     -0.456480
      4 H1         -3.6390    2.4390   -2.8380 hc        1 MOL      0.057358
      5 H2         -2.7320    3.6840   -3.7290 hc        1 MOL      0.057358
      6 H3         -2.0020    2.0870   -3.4380 hc        1 MOL      0.057358
      7 N1         -2.3350    4.6110   -1.2510 n         1 MOL     -0.501921
      8 C3         -1.8120    5.1980    0.0170 c3        1 MOL      0.013041
      9 C4         -0.2850    5.1510    0.1270 c         1 MOL      0.593492
     10 O2          0.2940    4.8840    1.1830 o         1 MOL     -0.518786
     11 C5         -2.4870    4.6000    1.3000 c3        1 MOL     -0.171868
     12 C6         -3.9780    4.6080    1.3270 c         1 MOL      0.837420
     13 O3         -4.6340    3.5540    1.5030 o         1 MOL     -0.817883
     14 O4         -4.6040    5.6630    1.2720 o         1 MOL     -0.817883
     15 H4         -3.1170    5.0870   -1.6780 hn        1 MOL      0.259979
     16 H5         -2.0700    6.2600    0.0690 h1        1 MOL      0.095811
     17 H6         -2.1190    5.1010    2.1960 hc        1 MOL      0.071536
     18 H7         -2.2880    3.5250    1.3060 hc        1 MOL      0.071536
     19 N2          0.4310    5.2010   -1.0090 n         1 MOL     -0.524249
     20 C7          1.9160    5.2420   -1.2390 c3        1 MOL      0.004542
     21 C8          2.6030    6.5210   -0.6300 c         1 MOL      0.577516
     22 O5          1.8690    7.4700   -0.4570 o         1 MOL     -0.601665
     23 C9          2.2810    5.0590   -2.7220 c3        1 MOL      0.116642
     24 C10         2.0260    6.4080   -3.5560 c3        1 MOL      0.132432
     25 C11         1.6320    3.8000   -3.2870 c3        1 MOL     -0.334875
     26 C12         2.1660    6.3030   -5.0050 c3        1 MOL     -0.238194
     27 H8         -0.0880    5.0870   -1.8660 hn        1 MOL      0.256777
     28 H9          2.2510    4.3390   -0.7190 h1        1 MOL      0.150271
     29 H10         3.3420    4.8300   -2.8800 hc        1 MOL      0.080180
     30 H11         2.7560    7.1120   -3.1450 hc        1 MOL     -0.016067
     31 H12         1.0590    6.8460   -3.2820 hc        1 MOL     -0.016067
     32 H13         0.5590    3.8360   -3.4770 hc        1 MOL      0.080352
     33 H14         2.0210    3.5230   -4.2660 hc        1 MOL      0.080352
     34 H15         1.7330    2.9990   -2.5560 hc        1 MOL      0.080352
     35 H16         2.1090    7.2510   -5.5500 hc        1 MOL      0.044405
     36 H17         3.1420    5.8970   -5.2640 hc        1 MOL      0.044405
     37 H18         1.3770    5.6310   -5.3600 hc        1 MOL      0.044405
     38 N3          3.9090    6.6460   -0.3640 n         1 MOL     -0.391821
     39 C13         4.8730    5.5150   -0.5040 c3        1 MOL     -0.360961
     40 C14         5.7800    5.6300    0.7460 c         1 MOL      0.627896
     41 O6          6.2740    6.7300    1.0940 o         1 MOL     -0.549589
     42 C15         5.7400    5.6760   -1.7380 c3        1 MOL     -0.175875
     43 C16         6.9070    4.7750   -1.7360 c         1 MOL      0.697880
     44 O7          8.0590    5.1700   -1.5540 o         1 MOL     -0.713463
     45 O8          6.6790    3.5940   -2.0320 o         1 MOL     -0.713463
     46 H19         4.2450    7.5350   -0.0240 hn        1 MOL      0.311251
     47 H20         4.4310    4.5150   -0.5340 h1        1 MOL      0.088959
     48 H21         6.1250    6.6870   -1.6280 hc        1 MOL      0.060564
     49 H22         5.1460    5.5190   -2.6420 hc        1 MOL      0.060564
     50 N4          6.0590    4.5000    1.3280 n         1 MOL     -0.267642
     51 C17         6.8840    4.4180    2.5970 c3        1 MOL     -0.276484
     52 C18         7.4060    3.0350    2.9840 c         1 MOL      0.723915
     53 O9          8.1910    2.8800    3.9350 o         1 MOL     -0.604427
     54 H23         5.5690    3.6790    0.9840 hn        1 MOL      0.270931
     55 H24         6.2110    4.8540    3.3360 h1        1 MOL      0.127012
     56 H25         7.6510    5.1910    2.6050 h1        1 MOL      0.127012
     57 N5          6.9590    1.9860    2.3060 n         1 MOL     -0.565197
     58 C19         7.2760    0.5840    2.6820 c3        1 MOL      0.153367
     59 C20         7.8970   -0.1280    1.4710 c         1 MOL      0.542257
     60 O10         8.9080   -0.7820    1.5800 o         1 MOL     -0.536259
     61 C21         6.0360   -0.1870    3.3210 c3        1 MOL     -0.215555
     62 C22         4.7080   -0.1890    2.4390 c         1 MOL      0.686617
     63 O11         3.7950    0.6000    2.8390 o         1 MOL     -0.672361
     64 O12         4.6160   -1.0990    1.5760 o         1 MOL     -0.672361
     65 H26         6.1740    2.2040    1.7020 hn        1 MOL      0.248876
     66 H27         8.0240    0.5610    3.4760 h1        1 MOL      0.057315
     67 H28         5.9470    0.3730    4.2550 hc        1 MOL      0.047218
     68 H29         6.4050   -1.1860    3.5490 hc        1 MOL      0.047218
     69 N6          7.2700    0.0090    0.2200 n         1 MOL     -0.441195
     70 C23         7.5160   -0.8610   -0.9540 c3        1 MOL     -0.102052
     71 C24         7.2970   -2.3490   -0.6520 c         1 MOL      0.441639
     72 O13         7.7760   -3.1560   -1.5000 o         1 MOL     -0.598424
     73 H30         6.4180    0.5450    0.2000 hn        1 MOL      0.295930
     74 H31         8.5490   -0.7210   -1.2560 h1        1 MOL      0.113550
     75 H32         6.8890   -0.4780   -1.7620 h1        1 MOL      0.113550
     76 N7          6.5590   -2.7260    0.3900 n         1 MOL      0.057855
     77 C25         6.2110   -4.1520    0.7290 c3        1 MOL     -0.163913
     78 C26         5.6730   -4.9990   -0.4280 c         1 MOL      0.565604
     79 O14         5.9410   -6.2210   -0.4610 o         1 MOL     -0.502477
     80 C27         7.4490   -4.7260    1.4660 c3        1 MOL      0.033182
     81 C28         7.7580   -4.0290    2.8060 c3        1 MOL     -0.210352
     82 C29         6.8340   -4.6230    3.8880 c         1 MOL      0.683874
     83 N8          7.0070   -4.1570    5.1390 n         1 MOL     -0.842683
     84 O15         6.0610   -5.5700    3.7160 o         1 MOL     -0.535718
     85 H33         6.0510   -1.9920    0.8610 hn        1 MOL      0.074699
     86 H34         5.4460   -4.0170    1.4930 h1        1 MOL      0.134114
     87 H35         8.3220   -4.5900    0.8210 hc        1 MOL      0.033017
     88 H36         7.3060   -5.8090    1.5630 hc        1 MOL      0.033017
     89 H37         7.7260   -2.9420    2.8240 hc        1 MOL      0.048864
     90 H38         8.7830   -4.3250    3.0340 hc        1 MOL      0.048864
     91 H39         7.6630   -3.4380    5.4100 hn        1 MOL      0.352036
     92 H40         6.6180   -4.6250    5.9490 hn        1 MOL      0.352036
     93 N9          4.9970   -4.3690   -1.4340 n         1 MOL     -0.593335
     94 C30         4.5090   -5.0070   -2.6630 c3        1 MOL      0.044147
     95 C31         3.0630   -4.7530   -2.8910 c         1 MOL      0.531393
     96 O16         2.4980   -5.5620   -3.6680 o         1 MOL     -0.582206
     97 C32         5.3170   -4.5110   -3.8800 c3        1 MOL      0.444528
     98 C33         5.4130   -3.0240   -4.0380 c3        1 MOL     -0.475901
     99 C34         6.7130   -5.1150   -3.8490 c3        1 MOL     -0.475901
    100 H41         4.9410   -3.3610   -1.3760 hn        1 MOL      0.274805
    101 H42         4.6230   -6.0940   -2.5850 h1        1 MOL      0.093088
    102 H43         4.8540   -4.9990   -4.7400 hc        1 MOL     -0.076044
    103 H44         4.4290   -2.6200   -4.2560 hc        1 MOL      0.111095
    104 H45         5.7200   -2.5720   -3.0870 hc        1 MOL      0.111095
    105 H46         6.1210   -2.8270   -4.8380 hc        1 MOL      0.111095
    106 H47         7.1400   -4.7000   -4.7680 hc        1 MOL      0.111095
    107 H48         7.2390   -4.7900   -2.9600 hc        1 MOL      0.111095
    108 H49         6.5610   -6.1940   -3.8820 hc        1 MOL      0.111095
    109 N10         2.3140   -3.7560   -2.2990 n         1 MOL     -0.392438
    110 C35         0.9090   -3.4760   -2.5940 c3        1 MOL      0.154703
    111 C36         0.1850   -3.2760   -1.2410 c         1 MOL      0.610275
    112 O17         0.7700   -3.3760   -0.1770 o         1 MOL     -0.550968
    113 C37         0.9650   -2.2050   -3.5130 c3        1 MOL     -0.336757
    114 C38        -0.4320   -1.8450   -3.9320 c         1 MOL      0.683078
    115 N11        -0.9040   -0.7600   -3.5380 n         1 MOL     -0.667122
    116 O18        -1.1570   -2.5980   -4.5680 o         1 MOL     -0.580779
    117 H50         2.7630   -3.1370   -1.6360 hn        1 MOL      0.258875
    118 H51         0.3570   -4.2520   -3.1180 h1        1 MOL      0.076903
    119 H52         1.5210   -2.4980   -4.4090 hc        1 MOL      0.087709
    120 H53         1.4730   -1.3640   -3.0440 hc        1 MOL      0.087709
    121 H54        -0.4230   -0.1330   -2.9000 hn        1 MOL      0.312217
    122 H55        -1.8860   -0.5950   -3.3460 hn        1 MOL      0.312217
    123 N12        -1.1160   -3.1670   -1.2870 n         1 MOL     -0.554913
    124 C39        -1.9660   -3.1220   -0.0640 c3        1 MOL      0.208786
    125 C40        -3.4430   -3.4930   -0.3600 c         1 MOL      0.465074
    126 O19        -3.9970   -2.9890   -1.3180 o         1 MOL     -0.555378
    127 C41        -1.8680   -1.7340    0.6700 c3        1 MOL     -0.412725
    128 C42        -2.4140   -1.9430    2.0890 ca        1 MOL      0.390618
    129 C43        -3.6940   -1.4030    2.4050 ca        1 MOL     -0.444113
    130 C44        -1.6520   -2.5250    3.1200 ca        1 MOL     -0.444113
    131 C45        -4.2020   -1.5760    3.7100 ca        1 MOL     -0.024123
    132 C46        -2.1560   -2.5260    4.4700 ca        1 MOL     -0.024123
    133 C47        -3.4240   -2.0330    4.7290 ca        1 MOL      0.104393
    134 O20        -3.9810   -2.2230    5.9550 oh        1 MOL     -0.446278
    135 H56        -1.6370   -2.8980   -2.1120 hn        1 MOL      0.285274
    136 H57        -1.5070   -3.8930    0.5630 h1        1 MOL      0.064933
    137 H58        -2.3520   -0.8770    0.2150 hc        1 MOL      0.144349
    138 H59        -0.8010   -1.5880    0.8120 hc        1 MOL      0.144349
    139 H60        -4.3260   -1.1060    1.5890 ha        1 MOL      0.233719
    140 H61        -0.6100   -2.7130    2.8920 ha        1 MOL      0.233719
    141 H62        -5.2020   -1.2700    3.9690 ha        1 MOL      0.107199
    142 H63        -1.5120   -2.9510    5.2290 ha        1 MOL      0.107199
    143 H64        -4.8890   -1.9140    5.9010 ho        1 MOL      0.329182
    144 N13        -4.1460   -4.2040    0.4900 n         1 MOL     -0.428635
    145 C48        -5.5850   -4.4200    0.5660 c3        1 MOL      0.114521
    146 C49        -6.4190   -3.5490    1.5210 c         1 MOL      0.461428
    147 O21        -6.5920   -3.8610    2.6470 o         1 MOL     -0.554142
    148 C50        -5.9050   -5.8910    0.7970 c3        1 MOL      0.177278
    149 C51        -5.2730   -6.8920   -0.1640 c3        1 MOL     -0.243011
    150 C52        -5.7020   -8.3640    0.0800 c         1 MOL      0.690260
    151 O22        -4.8230   -9.1650    0.5130 o         1 MOL     -0.709538
    152 O23        -6.8930   -8.7580   -0.0520 o         1 MOL     -0.709538
    153 H65        -3.6440   -4.5730    1.2840 hn        1 MOL      0.279656
    154 H66        -6.0000   -4.2500   -0.4320 h1        1 MOL      0.159866
    155 H67        -6.9840   -6.0470    0.8300 hc        1 MOL     -0.015104
    156 H68        -5.5750   -6.2690    1.7690 hc        1 MOL     -0.015104
    157 H69        -4.2010   -6.7740   -0.0340 hc        1 MOL      0.006795
    158 H70        -5.5980   -6.5630   -1.1470 hc        1 MOL      0.006795
    159 N14        -7.0110   -2.4490    1.0400 n         1 MOL     -0.136990
    160 C53        -6.9190   -1.8260   -0.3200 c3        1 MOL     -0.864754
    161 C54        -7.5960   -2.6470   -1.4360 c         1 MOL      0.520275
    162 O24        -8.6090   -3.3590   -1.2150 o         1 MOL     -0.495370
    163 C55        -7.6180   -0.5030   -0.2260 c3        1 MOL      0.016991
    164 C56        -7.7230    0.2140   -1.5820 c3        1 MOL      0.005168
    165 C57        -8.0360    1.6700   -1.3920 c         1 MOL      0.490119
    166 O25        -7.3160    2.3660   -0.6090 o         1 MOL     -0.677508
    167 O26        -9.1650    2.0620   -1.7140 o         1 MOL     -0.677508
    168 H71        -7.4420   -1.8000    1.6950 hn        1 MOL      0.192405
    169 H72        -5.8810   -1.5110   -0.4990 h1        1 MOL      0.239439
    170 H73        -7.1670    0.1550    0.5180 hc        1 MOL      0.111357
    171 H74        -8.6730   -0.5870    0.0400 hc        1 MOL      0.111357
    172 H75        -8.4730   -0.2530   -2.2020 hc        1 MOL      0.036517
    173 H76        -6.8620   -0.0090   -2.2260 hc        1 MOL      0.036517
    174 N15        -6.8940   -2.7150   -2.5950 n         1 MOL     -0.188891
    175 C58        -7.2440   -3.4820   -3.7700 c3        1 MOL     -0.276308
    176 H77        -8.0780   -3.0010   -4.2820 h1        1 MOL      0.113120
    177 H78        -6.3870   -3.5310   -4.4410 h1        1 MOL      0.113120
    178 H79        -7.5330   -4.4900   -3.4730 h1        1 MOL      0.113120
    179 H80        -6.0230   -2.2050   -2.6250 hn        1 MOL      0.291901
    180 Ca1        -7.0090    4.3860    0.9340 Ca        1 MOL      1.659389
    181 O27        -9.7950    3.6160    1.4510 oh        1 MOL     -0.800465
    182 H81       -10.0830    2.7440    1.1910 ho        1 MOL      0.398500
    183 H82       -10.0740    3.7100    2.3620 ho        1 MOL      0.398500
    184 O28        -6.9730    5.0420    3.5230 oh        1 MOL     -0.800465
    185 H83        -6.0480    4.9030    3.7780 ho        1 MOL      0.398500
    186 H84        -7.4200    5.2180    4.3490 ho        1 MOL      0.398500
    187 O29        -8.6440    4.9250   -1.0000 oh        1 MOL     -0.800465
    188 H85        -9.0190    5.5080   -1.6630 ho        1 MOL      0.398500
    189 H86        -8.7820    4.0480   -1.3610 ho        1 MOL      0.398500
    190 O30        -7.6710    6.9180    1.3540 oh        1 MOL     -0.800465
    191 H87        -7.1370    7.4070    1.9840 ho        1 MOL      0.398500
    192 H88        -8.3970    7.5070    1.1550 ho        1 MOL      0.398500
    193 O31        -7.2650    2.2470    2.4330 oh        1 MOL     -0.800465
    194 H89        -6.3890    2.0700    2.7810 ho        1 MOL      0.398500
    195 H90        -7.7760    1.4810    2.6940 ho        1 MOL      0.398500
@<TRIPOS>BOND
     1    1    2 1   
     2    1    4 1   
     3    1    5 1   
     4    1    6 1   
     5    2    3 2   
     6    2    7 1   
     7    7    8 1   
     8    7   15 1   
     9    8    9 1   
    10    8   11 1   
    11    8   16 1   
    12    9   10 2   
    13    9   19 1   
    14   11   12 1   
    15   11   17 1   
    16   11   18 1   
    17   12   13 1   
    18   12   14 1   
    19   19   20 1   
    20   19   27 1   
    21   20   21 1   
    22   20   23 1   
    23   20   28 1   
    24   21   22 2   
    25   21   38 1   
    26   23   24 1   
    27   23   25 1   
    28   23   29 1   
    29   24   26 1   
    30   24   30 1   
    31   24   31 1   
    32   25   32 1   
    33   25   33 1   
    34   25   34 1   
    35   26   35 1   
    36   26   36 1   
    37   26   37 1   
    38   38   39 1   
    39   38   46 1   
    40   39   40 1   
    41   39   42 1   
    42   39   47 1   
    43   40   41 2   
    44   40   50 1   
    45   42   43 1   
    46   42   48 1   
    47   42   49 1   
    48   43   44 1   
    49   43   45 1   
    50   50   51 1   
    51   50   54 1   
    52   51   52 1   
    53   51   55 1   
    54   51   56 1   
    55   52   53 2   
    56   52   57 1   
    57   57   58 1   
    58   57   65 1   
    59   58   59 1   
    60   58   61 1   
    61   58   66 1   
    62   59   60 2   
    63   59   69 1   
    64   61   62 1   
    65   61   67 1   
    66   61   68 1   
    67   62   63 1   
    68   62   64 1   
    69   69   70 1   
    70   69   73 1   
    71   70   71 1   
    72   70   74 1   
    73   70   75 1   
    74   71   72 2   
    75   71   76 1   
    76   76   77 1   
    77   76   85 1   
    78   77   78 1   
    79   77   80 1   
    80   77   86 1   
    81   78   79 2   
    82   78   93 1   
    83   80   81 1   
    84   80   87 1   
    85   80   88 1   
    86   81   82 1   
    87   81   89 1   
    88   81   90 1   
    89   82   83 1   
    90   82   84 2   
    91   83   91 1   
    92   83   92 1   
    93   93   94 1   
    94   93  100 1   
    95   94   95 1   
    96   94   97 1   
    97   94  101 1   
    98   95   96 2   
    99   95  109 1   
   100   97   98 1   
   101   97   99 1   
   102   97  102 1   
   103   98  103 1   
   104   98  104 1   
   105   98  105 1   
   106   99  106 1   
   107   99  107 1   
   108   99  108 1   
   109  109  110 1   
   110  109  117 1   
   111  110  111 1   
   112  110  113 1   
   113  110  118 1   
   114  111  112 2   
   115  111  123 1   
   116  113  114 1   
   117  113  119 1   
   118  113  120 1   
   119  114  115 1   
   120  114  116 2   
   121  115  121 1   
   122  115  122 1   
   123  123  124 1   
   124  123  135 1   
   125  124  125 1   
   126  124  127 1   
   127  124  136 1   
   128  125  126 2   
   129  125  144 1   
   130  127  128 1   
   131  127  137 1   
   132  127  138 1   
   133  128  129 ar  
   134  128  130 ar  
   135  129  131 ar  
   136  129  139 1   
   137  130  132 ar  
   138  130  140 1   
   139  131  133 ar  
   140  131  141 1   
   141  132  133 ar  
   142  132  142 1   
   143  133  134 1   
   144  134  143 1   
   145  144  145 1   
   146  144  153 1   
   147  145  146 1   
   148  145  148 1   
   149  145  154 1   
   150  146  147 2   
   151  146  159 1   
   152  148  149 1   
   153  148  155 1   
   154  148  156 1   
   155  149  150 1   
   156  149  157 1   
   157  149  158 1   
   158  150  151 1   
   159  150  152 1   
   160  159  160 1   
   161  159  168 1   
   162  160  161 1   
   163  160  163 1   
   164  160  169 1   
   165  161  162 2   
   166  161  174 1   
   167  163  164 1   
   168  163  170 1   
   169  163  171 1   
   170  164  165 1   
   171  164  172 1   
   172  164  173 1   
   173  165  166 1   
   174  165  167 1   
   175  174  175 1   
   176  174  179 1   
   177  175  176 1   
   178  175  177 1   
   179  175  178 1   
   180  181  182 1   
   181  181  183 1   
   182  184  185 1   
   183  184  186 1   
   184  187  188 1   
   185  187  189 1   
   186  190  191 1   
   187  190  192 1   
   188  193  194 1   
   189  193  195 1   
@<TRIPOS>SUBSTRUCTURE
     1 MOL         1 TEMP              0 ****  ****    0 ROOT
