@<TRIPOS>MOLECULE
MOL
  195   189     1     0     0
SMALL
resp


@<TRIPOS>ATOM
      1 C1          4.6610   -0.7050    6.0490 c3        1 MOL     -0.330607
      2 C2          4.4680   -0.4370    4.5800 c         1 MOL      0.617355
      3 O1          4.1250    0.6920    4.1270 o         1 MOL     -0.535355
      4 H1          4.1210   -1.6100    6.3280 hc        1 MOL      0.087011
      5 H2          5.7230   -0.8380    6.2580 hc        1 MOL      0.087011
      6 H3          4.2800    0.1370    6.6260 hc        1 MOL      0.087011
      7 N1          4.7260   -1.4680    3.8280 n         1 MOL     -0.479176
      8 C3          4.4810   -1.5110    2.3280 c3        1 MOL      0.239408
      9 C4          3.0190   -1.4690    1.8470 c         1 MOL      0.147041
     10 O2          2.8180   -1.5180    0.6150 o         1 MOL     -0.294679
     11 C5          5.1160   -2.7240    1.5990 c3        1 MOL     -0.274521
     12 C6          5.2760   -4.0330    2.3080 c         1 MOL      0.704232
     13 O3          6.0940   -4.1000    3.2850 o         1 MOL     -0.718077
     14 O4          4.6420   -5.0890    1.9480 o         1 MOL     -0.718077
     15 H4          5.2200   -2.2450    4.2430 hn        1 MOL      0.266693
     16 H5          4.9480   -0.6010    1.9280 h1        1 MOL      0.038169
     17 H6          6.1240   -2.3870    1.3320 hc        1 MOL      0.065927
     18 H7          4.7380   -2.9800    0.6070 hc        1 MOL      0.065927
     19 N2          2.0510   -1.2420    2.6830 n         1 MOL     -0.162019
     20 C7          0.6290   -1.2740    2.3460 c3        1 MOL     -0.016933
     21 C8         -0.1400   -0.1700    3.1080 c         1 MOL      0.582966
     22 O5          0.0310    0.1090    4.2710 o         1 MOL     -0.520263
     23 C9          0.0590   -2.6460    2.6560 c3        1 MOL     -0.307578
     24 C10         0.8030   -3.8870    2.1160 c3        1 MOL     -0.007090
     25 C11         0.1350   -5.1760    2.5690 c3        1 MOL     -0.058519
     26 C12        -0.0110   -5.2910    4.0870 c3        1 MOL      0.088042
     27 N3         -0.7920   -6.4990    4.4280 n4        1 MOL     -0.338041
     28 H8          2.2240   -1.0670    3.6620 hn        1 MOL      0.205485
     29 H9          0.5540   -1.0790    1.2750 h1        1 MOL      0.179022
     30 H10        -0.9190   -2.7750    2.1880 hc        1 MOL      0.099469
     31 H11        -0.1210   -2.7850    3.7220 hc        1 MOL      0.099469
     32 H12         1.7710   -3.7920    2.5950 hc        1 MOL      0.058409
     33 H13         0.8790   -3.8470    1.0270 hc        1 MOL      0.058409
     34 H14         0.8280   -5.9670    2.3000 hc        1 MOL      0.039725
     35 H15        -0.7650   -5.3730    1.9890 hc        1 MOL      0.039725
     36 H16        -0.3840   -4.3770    4.5680 hx        1 MOL      0.076909
     37 H17         0.9960   -5.3630    4.4950 hx        1 MOL      0.076909
     38 H18        -1.7360   -6.4510    4.0550 hn        1 MOL      0.318815
     39 H19        -0.3660   -7.2230    3.8810 hn        1 MOL      0.318815
     40 H20        -0.7220   -6.7980    5.3860 hn        1 MOL      0.318815
     41 N4         -1.0110    0.6320    2.3850 n         1 MOL     -0.469673
     42 C13        -1.3900    0.5320    0.9530 c3        1 MOL      0.030943
     43 C14        -1.7180   -0.8230    0.4150 c         1 MOL     -0.007999
     44 O6         -1.0510   -1.4670   -0.3850 o         1 MOL     -0.318661
     45 C15        -0.4450    1.3290    0.0340 c3        1 MOL     -0.670135
     46 C16        -0.2180    2.8480    0.3160 c         1 MOL      1.234354
     47 O7         -1.1410    3.6660    0.5860 o         1 MOL     -0.889880
     48 O8          0.9130    3.4180    0.2160 o         1 MOL     -0.889880
     49 H21        -1.2900    1.4140    2.9500 hn        1 MOL      0.318803
     50 H22        -2.2900    1.1220    0.7340 h1        1 MOL      0.121795
     51 H23        -0.8480    1.3910   -0.9700 hc        1 MOL      0.202521
     52 H24         0.5300    0.8500    0.0850 hc        1 MOL      0.202521
     53 N5         -2.7540   -1.4820    0.9150 n         1 MOL     -0.077780
     54 C17        -3.8630   -0.9510    1.7270 c3        1 MOL     -0.149449
     55 C18        -4.7100   -2.0180    2.3470 c         1 MOL      0.603762
     56 O9         -4.2080   -3.1420    2.4600 o         1 MOL     -0.595887
     57 H25        -2.9150   -2.4350    0.6190 hn        1 MOL      0.251134
     58 H26        -4.4430   -0.4010    0.9940 h1        1 MOL      0.075834
     59 H27        -3.5820   -0.2770    2.5340 h1        1 MOL      0.075834
     60 N6         -5.9290   -1.8150    2.8420 n         1 MOL     -0.511713
     61 C19        -6.6370   -0.5430    2.9770 c3        1 MOL      0.150070
     62 C20        -7.6930   -0.1680    1.9290 c         1 MOL      0.424580
     63 O10        -8.2330   -1.0740    1.2900 o         1 MOL     -0.467326
     64 C21        -7.2970   -0.4930    4.3510 c3        1 MOL     -0.127545
     65 C22        -8.2620   -1.6610    4.5460 c         1 MOL      0.669950
     66 O11        -7.8280   -2.8240    4.8370 o         1 MOL     -0.662958
     67 O12        -9.4950   -1.4130    4.4530 o         1 MOL     -0.662958
     68 H28        -6.4550   -2.5970    3.2140 hn        1 MOL      0.297727
     69 H29        -5.8740    0.2320    3.0190 h1        1 MOL     -0.011809
     70 H30        -7.6910    0.5220    4.4470 hc        1 MOL      0.000385
     71 H31        -6.5000   -0.5690    5.0910 hc        1 MOL      0.000385
     72 N7         -7.8660    1.0950    1.7610 n         1 MOL     -0.219748
     73 C23        -8.6430    1.6700    0.6680 c3        1 MOL     -0.419089
     74 C24        -8.0950    1.5130   -0.7650 c         1 MOL      0.617068
     75 O13        -8.8660    1.6150   -1.7130 o         1 MOL     -0.548510
     76 H32        -7.3400    1.7480    2.3300 hn        1 MOL      0.246829
     77 H33        -8.7210    2.7410    0.8510 h1        1 MOL      0.182211
     78 H34        -9.6140    1.1730    0.6980 h1        1 MOL      0.182211
     79 N8         -6.7940    1.3230   -0.9070 n         1 MOL     -0.273943
     80 C25        -6.1760    1.0440   -2.2030 c3        1 MOL     -0.255130
     81 C26        -4.9770    0.0870   -2.0350 c         1 MOL      0.441491
     82 O14        -4.0530    0.3720   -1.2710 o         1 MOL     -0.350620
     83 C27        -5.6620    2.3000   -2.8580 c3        1 MOL      0.372361
     84 C28        -6.7520    3.4100   -3.1130 c3        1 MOL     -0.424683
     85 O15        -5.1730    1.9420   -4.0810 oh        1 MOL     -0.654400
     86 H35        -6.1830    1.5180   -0.1230 hn        1 MOL      0.201279
     87 H36        -6.8990    0.5670   -2.8600 h1        1 MOL      0.176186
     88 H37        -4.9050    2.7420   -2.2140 h1        1 MOL     -0.001267
     89 H38        -5.3880    2.6300   -4.7160 ho        1 MOL      0.431670
     90 H39        -7.6090    3.0530   -3.6870 hc        1 MOL      0.113139
     91 H40        -7.1300    3.8110   -2.1740 hc        1 MOL      0.113139
     92 H41        -6.3360    4.1810   -3.7580 hc        1 MOL      0.113139
     93 N9         -4.9530   -1.0060   -2.7690 n         1 MOL     -0.363676
     94 C29        -3.8000   -1.9210   -2.8810 c3        1 MOL     -0.055685
     95 C30        -2.5550   -1.3140   -3.6340 c         1 MOL      0.266775
     96 O16        -1.9200   -1.9730   -4.4640 o         1 MOL     -0.486509
     97 C31        -4.1870   -3.3320   -3.4750 c3        1 MOL      0.206428
     98 C32        -4.8670   -3.2130   -4.8870 c3        1 MOL      0.103244
     99 C33        -5.1530   -4.0770   -2.5350 c3        1 MOL     -0.298229
    100 C34        -5.3770   -4.5220   -5.4520 c3        1 MOL     -0.217182
    101 H42        -5.7180   -1.1750   -3.3920 hn        1 MOL      0.276463
    102 H43        -3.4750   -2.1800   -1.8800 h1        1 MOL      0.138957
    103 H44        -3.2320   -3.8730   -3.4860 hc        1 MOL      0.011736
    104 H45        -4.1400   -2.8560   -5.6150 hc        1 MOL      0.002302
    105 H46        -5.7270   -2.5460   -4.8990 hc        1 MOL      0.002302
    106 H47        -5.1970   -5.1180   -2.8670 hc        1 MOL      0.068381
    107 H48        -4.7420   -3.9370   -1.5370 hc        1 MOL      0.068381
    108 H49        -6.1280   -3.5980   -2.5860 hc        1 MOL      0.068381
    109 H50        -4.4970   -5.0170   -5.8410 hc        1 MOL      0.049864
    110 H51        -6.0380   -5.1120   -4.8090 hc        1 MOL      0.049864
    111 H52        -5.9890   -4.2860   -6.3180 hc        1 MOL      0.049864
    112 N10        -2.2350    0.0050   -3.4220 n         1 MOL     -0.053261
    113 C35        -1.0880    0.6710   -4.0910 c3        1 MOL     -0.044140
    114 C36         0.2170    0.2050   -3.3730 c         1 MOL      0.553381
    115 O17         1.0200    1.0330   -2.9740 o         1 MOL     -0.527701
    116 C37        -1.1870    2.1880   -4.3770 c3        1 MOL      0.396931
    117 C38        -1.5310    3.0410   -3.1940 c3        1 MOL     -0.332805
    118 O18        -2.0440    2.4910   -5.4320 oh        1 MOL     -0.657018
    119 H53        -2.7450    0.5600   -2.7570 hn        1 MOL      0.091132
    120 H54        -0.9550    0.2560   -5.0950 h1        1 MOL      0.103785
    121 H55        -0.2340    2.4430   -4.8220 h1        1 MOL      0.011062
    122 H56        -2.3170    3.4050   -5.3330 ho        1 MOL      0.392489
    123 H57        -2.4900    2.7580   -2.7570 hc        1 MOL      0.073635
    124 H58        -0.7630    3.0250   -2.4220 hc        1 MOL      0.073635
    125 H59        -1.7370    4.0310   -3.5990 hc        1 MOL      0.073635
    126 N11         0.4550   -1.1100   -3.1460 n         1 MOL     -0.580013
    127 C39         1.5570   -1.5800   -2.2740 c3        1 MOL     -0.007151
    128 C40         2.9290   -1.1360   -2.8300 c         1 MOL      0.531231
    129 O19         3.0400   -1.0490   -4.0580 o         1 MOL     -0.551420
    130 C41         1.5110   -3.0340   -1.9220 c3        1 MOL      0.622905
    131 C42         2.1450   -4.1090   -2.8230 c3        1 MOL     -0.444298
    132 O20         0.2240   -3.4840   -1.6160 oh        1 MOL     -0.656844
    133 H60        -0.2070   -1.7730   -3.5190 hn        1 MOL      0.324009
    134 H61         1.4400   -1.0800   -1.3180 h1        1 MOL      0.032522
    135 H62         2.1030   -3.1690   -1.0220 h1        1 MOL     -0.096277
    136 H63        -0.2560   -2.8310   -1.1180 ho        1 MOL      0.338212
    137 H64         1.7400   -3.9220   -3.8150 hc        1 MOL      0.100558
    138 H65         3.2370   -4.0770   -2.8130 hc        1 MOL      0.100558
    139 H66         1.7290   -5.0880   -2.5810 hc        1 MOL      0.100558
    140 N12         3.9320   -0.9660   -1.9900 n         1 MOL     -0.308708
    141 C43         5.3250   -0.8090   -2.4210 c3        1 MOL     -0.033860
    142 C44         5.9300    0.4420   -1.8030 c         1 MOL      0.657955
    143 O21         6.9560    0.9620   -2.3320 o         1 MOL     -0.639554
    144 C45         6.1720   -2.0650   -2.0460 c3        1 MOL     -0.084497
    145 C46         7.6000   -2.0770   -2.6120 c3        1 MOL      0.093067
    146 C47         8.3130   -3.3830   -2.2620 c3        1 MOL      0.099136
    147 C48         9.5850   -3.3350   -3.0890 c3        1 MOL     -0.003254
    148 N13        10.0190   -4.6730   -3.5500 n4        1 MOL     -0.335167
    149 H67         3.7350   -1.2250   -1.0430 hn        1 MOL      0.154738
    150 H68         5.4300   -0.5500   -3.4770 h1        1 MOL      0.097761
    151 H69         5.6620   -2.9360   -2.4720 hc        1 MOL      0.023879
    152 H70         6.2720   -2.0670   -0.9600 hc        1 MOL      0.023879
    153 H71         8.2640   -1.2820   -2.2550 hc        1 MOL     -0.017696
    154 H72         7.4730   -1.9740   -3.6960 hc        1 MOL     -0.017696
    155 H73         7.6650   -4.2370   -2.5070 hc        1 MOL      0.011180
    156 H74         8.5080   -3.4710   -1.2050 hc        1 MOL      0.011180
    157 H75        10.4910   -3.0430   -2.5460 hx        1 MOL      0.086216
    158 H76         9.4800   -2.7200   -3.9780 hx        1 MOL      0.086216
    159 H77         9.2270   -5.0380   -4.0730 hn        1 MOL      0.299179
    160 H78        10.8090   -4.6510   -4.1690 hn        1 MOL      0.299179
    161 H79        10.3020   -5.2910   -2.8110 hn        1 MOL      0.299179
    162 N14         5.3130    1.0580   -0.8450 n         1 MOL     -0.272249
    163 C49         5.6770    2.4310   -0.4230 c3        1 MOL     -0.394252
    164 C50         7.0100    2.3820    0.4130 c         1 MOL      0.489308
    165 O22         7.0670    1.9400    1.5720 o         1 MOL     -0.476771
    166 C51         4.5080    3.0510    0.3830 c3        1 MOL      0.703953
    167 C52         4.6530    4.5640    0.4300 c3        1 MOL     -0.347039
    168 C53         3.5210    5.1840    1.1780 c         1 MOL      0.713630
    169 O23         2.9310    4.5840    2.1140 o         1 MOL     -0.687348
    170 O24         2.9510    6.1830    0.7160 o         1 MOL     -0.687348
    171 H80         4.4360    0.7580   -0.4420 hn        1 MOL      0.147088
    172 H81         5.9040    3.0000   -1.3220 h1        1 MOL      0.143305
    173 H82         4.4100    2.6820    1.4100 hc        1 MOL     -0.085572
    174 H83         3.6070    2.8540   -0.1970 hc        1 MOL     -0.085572
    175 H84         4.6890    5.0380   -0.5480 hc        1 MOL      0.021961
    176 H85         5.5060    4.9380    0.9860 hc        1 MOL      0.021961
    177 N15         8.1390    3.0240   -0.0250 n         1 MOL     -0.299890
    178 C54         9.3000    3.1810    0.8490 c3        1 MOL     -0.139576
    179 H86         9.3170    2.3720    1.5790 h1        1 MOL      0.077747
    180 H87        10.2120    3.1490    0.2520 h1        1 MOL      0.077747
    181 H88         9.2380    4.1370    1.3690 h1        1 MOL      0.077747
    182 H89         8.1810    3.4650   -0.9370 hn        1 MOL      0.251597
    183 Ca1         0.3510    5.7800    1.0810 Ca        1 MOL      1.726231
    184 O25        -0.0640    4.3670    3.6090 oh        1 MOL     -0.858663
    185 H90         0.6420    3.9410    4.0920 ho        1 MOL      0.418575
    186 H91        -0.8190    4.2990    4.1790 ho        1 MOL      0.418575
    187 O26         0.6190    8.3660    0.4330 oh        1 MOL     -0.858663
    188 H92         0.6540    8.8130    1.2840 ho        1 MOL      0.418575
    189 H93         0.5970    9.0790   -0.2060 ho        1 MOL      0.418575
    190 O27        -0.0830    5.7870   -1.5280 oh        1 MOL     -0.858663
    191 H94         0.5200    5.9760   -2.2480 ho        1 MOL      0.418575
    192 H95        -0.8540    6.3260   -1.7070 ho        1 MOL      0.418575
    193 O28         1.1100    7.2030    3.2930 oh        1 MOL     -0.858663
    194 H96         1.1260    8.1560    3.1660 ho        1 MOL      0.418575
    195 H97         0.5570    7.0720    4.0680 ho        1 MOL      0.418575
@<TRIPOS>BOND
     1    1    2 1   
     2    1    4 1   
     3    1    5 1   
     4    1    6 1   
     5    2    3 2   
     6    2    7 1   
     7    7    8 1   
     8    7   15 1   
     9    8    9 1   
    10    8   11 1   
    11    8   16 1   
    12    9   10 2   
    13    9   19 1   
    14   11   12 1   
    15   11   17 1   
    16   11   18 1   
    17   12   13 1   
    18   12   14 1   
    19   19   20 1   
    20   19   28 1   
    21   20   21 1   
    22   20   23 1   
    23   20   29 1   
    24   21   22 2   
    25   21   41 1   
    26   23   24 1   
    27   23   30 1   
    28   23   31 1   
    29   24   25 1   
    30   24   32 1   
    31   24   33 1   
    32   25   26 1   
    33   25   34 1   
    34   25   35 1   
    35   26   27 1   
    36   26   36 1   
    37   26   37 1   
    38   27   38 1   
    39   27   39 1   
    40   27   40 1   
    41   41   42 1   
    42   41   49 1   
    43   42   43 1   
    44   42   45 1   
    45   42   50 1   
    46   43   44 2   
    47   43   53 1   
    48   45   46 1   
    49   45   51 1   
    50   45   52 1   
    51   46   47 1   
    52   46   48 1   
    53   53   54 1   
    54   53   57 1   
    55   54   55 1   
    56   54   58 1   
    57   54   59 1   
    58   55   56 2   
    59   55   60 1   
    60   60   61 1   
    61   60   68 1   
    62   61   62 1   
    63   61   64 1   
    64   61   69 1   
    65   62   63 2   
    66   62   72 1   
    67   64   65 1   
    68   64   70 1   
    69   64   71 1   
    70   65   66 1   
    71   65   67 1   
    72   72   73 1   
    73   72   76 1   
    74   73   74 1   
    75   73   77 1   
    76   73   78 1   
    77   74   75 2   
    78   74   79 1   
    79   79   80 1   
    80   79   86 1   
    81   80   81 1   
    82   80   83 1   
    83   80   87 1   
    84   81   82 2   
    85   81   93 1   
    86   83   84 1   
    87   83   85 1   
    88   83   88 1   
    89   84   90 1   
    90   84   91 1   
    91   84   92 1   
    92   85   89 1   
    93   93   94 1   
    94   93  101 1   
    95   94   95 1   
    96   94   97 1   
    97   94  102 1   
    98   95   96 2   
    99   95  112 1   
   100   97   98 1   
   101   97   99 1   
   102   97  103 1   
   103   98  100 1   
   104   98  104 1   
   105   98  105 1   
   106   99  106 1   
   107   99  107 1   
   108   99  108 1   
   109  100  109 1   
   110  100  110 1   
   111  100  111 1   
   112  112  113 1   
   113  112  119 1   
   114  113  114 1   
   115  113  116 1   
   116  113  120 1   
   117  114  115 2   
   118  114  126 1   
   119  116  117 1   
   120  116  118 1   
   121  116  121 1   
   122  117  123 1   
   123  117  124 1   
   124  117  125 1   
   125  118  122 1   
   126  126  127 1   
   127  126  133 1   
   128  127  128 1   
   129  127  130 1   
   130  127  134 1   
   131  128  129 2   
   132  128  140 1   
   133  130  131 1   
   134  130  132 1   
   135  130  135 1   
   136  131  137 1   
   137  131  138 1   
   138  131  139 1   
   139  132  136 1   
   140  140  141 1   
   141  140  149 1   
   142  141  142 1   
   143  141  144 1   
   144  141  150 1   
   145  142  143 2   
   146  142  162 1   
   147  144  145 1   
   148  144  151 1   
   149  144  152 1   
   150  145  146 1   
   151  145  153 1   
   152  145  154 1   
   153  146  147 1   
   154  146  155 1   
   155  146  156 1   
   156  147  148 1   
   157  147  157 1   
   158  147  158 1   
   159  148  159 1   
   160  148  160 1   
   161  148  161 1   
   162  162  163 1   
   163  162  171 1   
   164  163  164 1   
   165  163  166 1   
   166  163  172 1   
   167  164  165 2   
   168  164  177 1   
   169  166  167 1   
   170  166  173 1   
   171  166  174 1   
   172  167  168 1   
   173  167  175 1   
   174  167  176 1   
   175  168  169 1   
   176  168  170 1   
   177  177  178 1   
   178  177  182 1   
   179  178  179 1   
   180  178  180 1   
   181  178  181 1   
   182  184  185 1   
   183  184  186 1   
   184  187  188 1   
   185  187  189 1   
   186  190  191 1   
   187  190  192 1   
   188  193  194 1   
   189  193  195 1   
@<TRIPOS>SUBSTRUCTURE
     1 MOL         1 TEMP              0 ****  ****    0 ROOT
