@<TRIPOS>MOLECULE
MOL
  182   178     1     0     0
SMALL
resp


@<TRIPOS>ATOM
      1 C1          2.4650   -5.8020    5.6120 c3        1 MOL     -0.396505
      2 C2          2.2610   -5.1930    4.2470 c         1 MOL      0.771743
      3 O1          1.5080   -5.7710    3.4410 o         1 MOL     -0.596954
      4 H1          3.2770   -6.5280    5.5670 hc        1 MOL      0.109182
      5 H2          2.7170   -5.0190    6.3260 hc        1 MOL      0.109182
      6 H3          1.5500   -6.3020    5.9280 hc        1 MOL      0.109182
      7 N1          2.8650   -3.9950    3.9760 n         1 MOL     -0.673800
      8 C3          2.8580   -3.2990    2.6600 c3        1 MOL     -0.080980
      9 C4          3.2710   -4.1860    1.5150 c         1 MOL      0.758804
     10 O2          4.3310   -4.8040    1.5700 o         1 MOL     -0.543933
     11 C5          3.7230   -2.0230    2.7300 c3        1 MOL     -0.085212
     12 C6          3.7880   -1.1340    1.4500 c         1 MOL      0.301974
     13 O3          4.2480   -0.0060    1.5980 o         1 MOL     -0.554996
     14 O4          3.3510   -1.5330    0.4030 o         1 MOL     -0.554996
     15 H4          3.3450   -3.4970    4.7070 hn        1 MOL      0.361570
     16 H5          1.8970   -2.8920    2.3570 h1        1 MOL      0.062819
     17 H6          4.7640   -2.3150    2.9090 hc        1 MOL      0.067365
     18 H7          3.5160   -1.4830    3.6560 hc        1 MOL      0.067365
     19 N2          2.4600   -4.2100    0.4220 n         1 MOL     -0.410075
     20 C7          2.5720   -5.1070   -0.7520 c3        1 MOL     -0.131265
     21 C8          3.8900   -4.8560   -1.5230 c         1 MOL      0.493633
     22 O5          4.2700   -5.7030   -2.3410 o         1 MOL     -0.551332
     23 C9          1.2830   -5.0890   -1.6230 c3        1 MOL      0.166816
     24 C10         0.0260   -5.5540   -0.8360 c3        1 MOL     -0.196854
     25 C11        -1.1550   -5.8830   -1.7050 c3        1 MOL     -0.043918
     26 C12        -2.3910   -6.2780   -0.8690 c3        1 MOL      0.075118
     27 N3         -3.5540   -6.6340   -1.7490 n4        1 MOL     -0.293625
     28 H8          1.7670   -3.4770    0.3490 hn        1 MOL      0.129319
     29 H9          2.8060   -6.1010   -0.3640 h1        1 MOL      0.130853
     30 H10         1.4960   -5.7700   -2.4430 hc        1 MOL     -0.005140
     31 H11         1.1050   -4.1090   -2.0750 hc        1 MOL     -0.005140
     32 H12        -0.1790   -4.8280   -0.0550 hc        1 MOL      0.083843
     33 H13         0.3580   -6.4850   -0.3950 hc        1 MOL      0.083843
     34 H14        -0.8430   -6.6800   -2.3640 hc        1 MOL      0.049130
     35 H15        -1.3740   -5.0810   -2.4130 hc        1 MOL      0.049130
     36 H16        -2.6510   -5.4670   -0.1920 hx        1 MOL      0.070190
     37 H17        -2.2300   -7.1470   -0.2290 hx        1 MOL      0.070190
     38 H18        -4.3050   -6.9580   -1.1480 hn        1 MOL      0.272595
     39 H19        -3.8720   -5.8630   -2.3060 hn        1 MOL      0.272595
     40 H20        -3.3620   -7.3750   -2.4080 hn        1 MOL      0.272595
     41 N4          4.5670   -3.7500   -1.2800 n         1 MOL     -0.323470
     42 C13         5.7980   -3.4400   -2.0550 c3        1 MOL      0.030276
     43 C14         6.7650   -2.6420   -1.1570 c         1 MOL      0.286608
     44 O6          7.8930   -2.3420   -1.5480 o         1 MOL     -0.516379
     45 C15         5.4810   -2.6290   -3.3200 c3        1 MOL     -0.159510
     46 C16         4.3790   -1.6350   -3.1880 c         1 MOL      0.678282
     47 O7          4.5290   -0.6960   -2.3720 o         1 MOL     -0.692989
     48 O8          3.3040   -1.7560   -3.7930 o         1 MOL     -0.692989
     49 H21         4.0690   -3.0730   -0.7220 hn        1 MOL      0.265373
     50 H22         6.2590   -4.3830   -2.3280 h1        1 MOL      0.139476
     51 H23         5.1730   -3.3680   -4.0520 hc        1 MOL      0.059573
     52 H24         6.4200   -2.2540   -3.7350 hc        1 MOL      0.059573
     53 N5          6.4140   -2.3300    0.0440 n         1 MOL      0.087837
     54 C17         7.3080   -1.6630    0.9780 c3        1 MOL     -0.175046
     55 C18         7.4870   -0.1140    0.7700 c         1 MOL      0.519894
     56 O9          8.4490    0.4810    1.2140 o         1 MOL     -0.554293
     57 H25         5.6290   -2.8230    0.4510 hn        1 MOL      0.052017
     58 H26         8.3130   -2.0890    0.9880 h1        1 MOL      0.097946
     59 H27         6.9100   -1.7350    1.9980 h1        1 MOL      0.097946
     60 N6          6.7250    0.5300   -0.0800 n         1 MOL     -0.125354
     61 C19         6.9770    1.9190   -0.4510 c3        1 MOL     -0.011500
     62 C20         5.7260    2.7780   -0.6320 c         1 MOL      0.528865
     63 O10         4.6210    2.2900   -0.9020 o         1 MOL     -0.526603
     64 C21         7.8490    1.9390   -1.7770 c3        1 MOL     -0.235516
     65 C22         6.9620    2.0570   -3.0810 c         1 MOL      0.608654
     66 N7          6.3620    1.0170   -3.5780 n         1 MOL     -0.735950
     67 O11         6.8740    3.1610   -3.6080 o         1 MOL     -0.590266
     68 H28         5.8890    0.1410   -0.4920 hn        1 MOL      0.017293
     69 H29         7.5870    2.3400    0.3490 h1        1 MOL      0.078804
     70 H30         8.4630    1.0490   -1.9040 hc        1 MOL      0.103041
     71 H31         8.5340    2.7770   -1.7050 hc        1 MOL      0.103041
     72 H32         6.1340    0.2380   -2.9830 hn        1 MOL      0.361680
     73 H33         5.9540    0.9980   -4.5030 hn        1 MOL      0.361680
     74 N8          5.7990    4.1100   -0.4170 n         1 MOL     -0.367831
     75 C23         4.7560    5.0610   -0.6560 c3        1 MOL     -0.175915
     76 C24         3.6240    4.9320    0.4620 c         1 MOL      0.570825
     77 O12         4.0130    4.8770    1.6310 o         1 MOL     -0.512350
     78 H34         6.7130    4.5020   -0.2180 hn        1 MOL      0.308699
     79 H35         4.2870    4.9200   -1.6320 h1        1 MOL      0.112123
     80 H36         5.2420    6.0390   -0.6880 h1        1 MOL      0.112123
     81 N9          2.3750    4.9190    0.0890 n         1 MOL     -0.408921
     82 C25         1.3210    4.5480    0.9660 c3        1 MOL      0.065334
     83 C26         1.3310    3.0510    1.2480 c         1 MOL      0.688357
     84 O13         2.0070    2.3430    0.5460 o         1 MOL     -0.586523
     85 C27         0.0240    5.1970    0.4500 c3        1 MOL     -0.240922
     86 C28        -0.0970    6.7020    0.4370 ca        1 MOL      0.125146
     87 C29        -0.2960    7.4490    1.6250 ca        1 MOL     -0.180224
     88 C30         0.2060    7.3770   -0.7660 ca        1 MOL     -0.180224
     89 C31        -0.1910    8.8380    1.6070 ca        1 MOL     -0.257520
     90 C32         0.1910    8.7500   -0.8190 ca        1 MOL     -0.257520
     91 C33        -0.1540    9.4810    0.3340 ca        1 MOL      0.361810
     92 O14        -0.3250   10.7970    0.2170 oh        1 MOL     -0.486050
     93 H37         2.1580    4.8300   -0.8950 hn        1 MOL      0.235395
     94 H38         1.5110    5.0210    1.9260 h1        1 MOL      0.066366
     95 H39        -0.8030    4.8260    1.0520 hc        1 MOL      0.062416
     96 H40        -0.0720    4.7750   -0.5420 hc        1 MOL      0.062416
     97 H41        -0.4110    6.9480    2.5740 ha        1 MOL      0.144461
     98 H42         0.3550    6.8230   -1.6760 ha        1 MOL      0.144461
     99 H43        -0.3690    9.4010    2.5150 ha        1 MOL      0.155390
    100 H44         0.1380    9.2390   -1.7730 ha        1 MOL      0.155390
    101 H45        -0.2540   11.2910    1.0410 ho        1 MOL      0.382743
    102 N10         0.5820    2.6400    2.3010 n         1 MOL     -0.610802
    103 C34         0.1800    1.3080    2.8420 c3        1 MOL      0.038791
    104 C35        -0.0930    0.3250    1.7190 c         1 MOL      0.408240
    105 O15         0.7700   -0.1930    1.0400 o         1 MOL     -0.388004
    106 C36         1.2670    0.7610    3.8080 c3        1 MOL      0.316676
    107 C37         0.8050   -0.4840    4.5950 c3        1 MOL     -0.147442
    108 C38         1.9130    1.9050    4.6700 c3        1 MOL     -0.423787
    109 C39        -0.1590   -0.0560    5.7360 c3        1 MOL     -0.342000
    110 H46         0.4060    3.3780    2.9650 hn        1 MOL      0.321181
    111 H47        -0.7730    1.4460    3.3560 h1        1 MOL      0.068926
    112 H48         2.0640    0.3630    3.1880 hc        1 MOL      0.011082
    113 H49         1.6050   -1.0230    5.1050 hc        1 MOL      0.095300
    114 H50         0.2310   -1.1510    3.9420 hc        1 MOL      0.095300
    115 H51         2.5230    2.4870    3.9840 hc        1 MOL      0.111956
    116 H52         1.2070    2.6360    5.0860 hc        1 MOL      0.111956
    117 H53         2.4680    1.4840    5.5070 hc        1 MOL      0.111956
    118 H54         0.4250    0.3980    6.5370 hc        1 MOL      0.085252
    119 H55        -0.8840    0.6800    5.4050 hc        1 MOL      0.085252
    120 H56        -0.6780   -0.9390    6.0910 hc        1 MOL      0.085252
    121 N11        -1.3340   -0.1470    1.4790 n         1 MOL     -0.478541
    122 C40        -1.6100   -1.1670    0.3460 c3        1 MOL     -0.002487
    123 C41        -2.9610   -1.0360   -0.3310 c         1 MOL      0.528068
    124 O16        -3.2570   -1.7900   -1.2760 o         1 MOL     -0.539009
    125 C42        -1.4080   -2.5990    0.9220 c3        1 MOL      0.299342
    126 O17        -2.4700   -2.9100    1.7840 oh        1 MOL     -0.590877
    127 H57        -2.0770    0.1650    2.0900 hn        1 MOL      0.302762
    128 H58        -0.9560   -0.9230   -0.4950 h1        1 MOL      0.115829
    129 H59        -0.4190   -2.5880    1.3930 h1        1 MOL     -0.041676
    130 H60        -1.3930   -3.2670    0.0570 h1        1 MOL     -0.041676
    131 H61        -2.1770   -3.6500    2.3190 ho        1 MOL      0.401872
    132 N12        -3.7910   -0.0730    0.1020 n         1 MOL     -0.445529
    133 C43        -5.1730    0.0400   -0.2870 c3        1 MOL      0.273130
    134 C44        -5.3610    0.6270   -1.7300 c         1 MOL      0.496106
    135 O18        -4.4780    1.2580   -2.3200 o         1 MOL     -0.545610
    136 C45        -5.8110    0.9550    0.7540 c3        1 MOL     -0.511230
    137 H62        -3.5110    0.5340    0.8610 hn        1 MOL      0.228306
    138 H63        -5.6510   -0.9330   -0.2370 h1        1 MOL      0.059118
    139 H64        -5.3890    0.6040    1.6930 hc        1 MOL      0.144958
    140 H65        -5.6300    1.9690    0.4110 hc        1 MOL      0.144958
    141 H66        -6.8960    0.8980    0.8310 hc        1 MOL      0.144958
    142 N13        -6.5590    0.4510   -2.3120 n         1 MOL     -0.473221
    143 C46        -7.7500   -0.3160   -1.9690 c3        1 MOL      0.145504
    144 C47        -9.0550    0.3830   -2.3950 c         1 MOL      0.317821
    145 O19        -9.1640    1.0960   -3.3920 o         1 MOL     -0.500680
    146 C48        -7.6160   -1.5450   -2.7960 c3        1 MOL     -0.067587
    147 H67        -6.6950    0.7690   -3.2600 hn        1 MOL      0.306508
    148 H68        -7.7430   -0.6740   -0.9330 h1        1 MOL      0.037531
    149 H69        -7.4670   -1.3720   -3.8640 hc        1 MOL      0.029333
    150 H70        -6.7410   -2.1270   -2.5170 hc        1 MOL      0.029333
    151 H71        -8.5000   -2.1680   -2.6690 hc        1 MOL      0.029333
    152 N14       -10.1350    0.1510   -1.6610 n         1 MOL     -0.241490
    153 C49       -10.2940   -0.4530   -0.3140 c3        1 MOL     -0.163406
    154 C50        -9.9230    0.4680    0.8310 c         1 MOL      0.692620
    155 O20        -9.4370    0.0350    1.8690 o         1 MOL     -0.571005
    156 C51       -11.6350   -1.2930   -0.3250 c3        1 MOL      0.045225
    157 C52       -12.7840   -0.3770   -0.2060 c3        1 MOL     -0.044207
    158 C53       -14.0680   -1.0920    0.0930 c         1 MOL      0.705316
    159 O21       -14.2540   -2.0590   -0.6100 o         1 MOL     -0.675919
    160 O22       -14.8310   -0.6400    0.9750 o         1 MOL     -0.675919
    161 H72       -10.9520    0.6710   -1.9450 hn        1 MOL      0.269764
    162 H73        -9.6120   -1.2890   -0.1160 h1        1 MOL      0.044823
    163 H74       -11.6170   -1.8440    0.6060 hc        1 MOL      0.019775
    164 H75       -11.7100   -2.0000   -1.1630 hc        1 MOL      0.019775
    165 H76       -12.7630    0.2290   -1.1130 hc        1 MOL     -0.042851
    166 H77       -12.5640    0.3070    0.6120 hc        1 MOL     -0.042851
    167 N15       -10.0950    1.7840    0.6030 n         1 MOL     -0.370128
    168 C54        -9.5850    2.7660    1.6040 c3        1 MOL     -0.136782
    169 H78       -10.4040    3.4040    1.9360 h1        1 MOL      0.084988
    170 H79        -9.1710    2.2320    2.4600 h1        1 MOL      0.084988
    171 H80        -8.8090    3.3810    1.1480 h1        1 MOL      0.084988
    172 H81       -10.3540    2.1130   -0.3190 hn        1 MOL      0.257228
    173 Ca1         2.6540    0.4500   -1.1140 Ca        1 MOL      1.755568
    174 O23         0.4320    1.3620   -2.4220 oh        1 MOL     -0.872522
    175 H82         0.3430    1.7080   -3.3070 ho        1 MOL      0.428928
    176 H83        -0.3840    1.6010   -1.9830 ho        1 MOL      0.428928
    177 O24         1.2340   -1.5850   -2.1650 oh        1 MOL     -0.872522
    178 H84         0.3900   -1.8300   -2.5480 ho        1 MOL      0.428928
    179 H85         1.8740   -2.1210   -2.6440 ho        1 MOL      0.428928
    180 O25         3.2460    1.9100   -3.2330 oh        1 MOL     -0.872522
    181 H86         4.0160    2.2480   -3.6770 ho        1 MOL      0.428928
    182 H87         2.5100    2.3310   -3.6680 ho        1 MOL      0.428928
@<TRIPOS>BOND
     1    1    2 1   
     2    1    4 1   
     3    1    5 1   
     4    1    6 1   
     5    2    3 2   
     6    2    7 1   
     7    7    8 1   
     8    7   15 1   
     9    8    9 1   
    10    8   11 1   
    11    8   16 1   
    12    9   10 2   
    13    9   19 1   
    14   11   12 1   
    15   11   17 1   
    16   11   18 1   
    17   12   13 1   
    18   12   14 1   
    19   19   20 1   
    20   19   28 1   
    21   20   21 1   
    22   20   23 1   
    23   20   29 1   
    24   21   22 2   
    25   21   41 1   
    26   23   24 1   
    27   23   30 1   
    28   23   31 1   
    29   24   25 1   
    30   24   32 1   
    31   24   33 1   
    32   25   26 1   
    33   25   34 1   
    34   25   35 1   
    35   26   27 1   
    36   26   36 1   
    37   26   37 1   
    38   27   38 1   
    39   27   39 1   
    40   27   40 1   
    41   41   42 1   
    42   41   49 1   
    43   42   43 1   
    44   42   45 1   
    45   42   50 1   
    46   43   44 2   
    47   43   53 1   
    48   45   46 1   
    49   45   51 1   
    50   45   52 1   
    51   46   47 1   
    52   46   48 1   
    53   53   54 1   
    54   53   57 1   
    55   54   55 1   
    56   54   58 1   
    57   54   59 1   
    58   55   56 2   
    59   55   60 1   
    60   60   61 1   
    61   60   68 1   
    62   61   62 1   
    63   61   64 1   
    64   61   69 1   
    65   62   63 2   
    66   62   74 1   
    67   64   65 1   
    68   64   70 1   
    69   64   71 1   
    70   65   66 1   
    71   65   67 2   
    72   66   72 1   
    73   66   73 1   
    74   74   75 1   
    75   74   78 1   
    76   75   76 1   
    77   75   79 1   
    78   75   80 1   
    79   76   77 2   
    80   76   81 1   
    81   81   82 1   
    82   81   93 1   
    83   82   83 1   
    84   82   85 1   
    85   82   94 1   
    86   83   84 2   
    87   83  102 1   
    88   85   86 1   
    89   85   95 1   
    90   85   96 1   
    91   86   87 ar  
    92   86   88 ar  
    93   87   89 ar  
    94   87   97 1   
    95   88   90 ar  
    96   88   98 1   
    97   89   91 ar  
    98   89   99 1   
    99   90   91 ar  
   100   90  100 1   
   101   91   92 1   
   102   92  101 1   
   103  102  103 1   
   104  102  110 1   
   105  103  104 1   
   106  103  106 1   
   107  103  111 1   
   108  104  105 2   
   109  104  121 1   
   110  106  107 1   
   111  106  108 1   
   112  106  112 1   
   113  107  109 1   
   114  107  113 1   
   115  107  114 1   
   116  108  115 1   
   117  108  116 1   
   118  108  117 1   
   119  109  118 1   
   120  109  119 1   
   121  109  120 1   
   122  121  122 1   
   123  121  127 1   
   124  122  123 1   
   125  122  125 1   
   126  122  128 1   
   127  123  124 2   
   128  123  132 1   
   129  125  126 1   
   130  125  129 1   
   131  125  130 1   
   132  126  131 1   
   133  132  133 1   
   134  132  137 1   
   135  133  134 1   
   136  133  136 1   
   137  133  138 1   
   138  134  135 2   
   139  134  142 1   
   140  136  139 1   
   141  136  140 1   
   142  136  141 1   
   143  142  143 1   
   144  142  147 1   
   145  143  144 1   
   146  143  146 1   
   147  143  148 1   
   148  144  145 2   
   149  144  152 1   
   150  146  149 1   
   151  146  150 1   
   152  146  151 1   
   153  152  153 1   
   154  152  161 1   
   155  153  154 1   
   156  153  156 1   
   157  153  162 1   
   158  154  155 2   
   159  154  167 1   
   160  156  157 1   
   161  156  163 1   
   162  156  164 1   
   163  157  158 1   
   164  157  165 1   
   165  157  166 1   
   166  158  159 1   
   167  158  160 1   
   168  167  168 1   
   169  167  172 1   
   170  168  169 1   
   171  168  170 1   
   172  168  171 1   
   173  174  175 1   
   174  174  176 1   
   175  177  178 1   
   176  177  179 1   
   177  180  181 1   
   178  180  182 1   
@<TRIPOS>SUBSTRUCTURE
     1 MOL         1 TEMP              0 ****  ****    0 ROOT
