@<TRIPOS>MOLECULE
MOL
  181   177     1     0     0
SMALL
resp


@<TRIPOS>ATOM
      1 C1          2.2730   -1.5840    4.8040 c3        1 MOL     -0.320619
      2 C2          3.2680   -1.0220    3.8230 c         1 MOL      0.645131
      3 O1          3.2100   -1.2320    2.6200 o         1 MOL     -0.529315
      4 H1          1.9820   -0.8070    5.5110 hc        1 MOL      0.082114
      5 H2          1.3920   -1.9360    4.2670 hc        1 MOL      0.082114
      6 H3          2.7250   -2.4160    5.3450 hc        1 MOL      0.082114
      7 N1          4.3130   -0.3520    4.3250 n         1 MOL     -0.534868
      8 C3          5.5470   -0.0610    3.6190 c3        1 MOL      0.161044
      9 C4          6.2130   -1.3950    3.0390 c         1 MOL      0.447777
     10 O2          6.9660   -1.3330    2.0410 o         1 MOL     -0.411480
     11 C5          6.5380    0.6140    4.5610 c3        1 MOL     -0.183799
     12 C6          7.8030    1.0680    3.8250 c         1 MOL      0.655768
     13 O3          8.8890    0.5880    4.2420 o         1 MOL     -0.697660
     14 O4          7.7590    1.8240    2.8030 o         1 MOL     -0.697660
     15 H4          4.3820   -0.1850    5.3190 hn        1 MOL      0.273064
     16 H5          5.3290    0.5630    2.7530 h1        1 MOL      0.061972
     17 H6          6.8190   -0.1360    5.2990 hc        1 MOL      0.002360
     18 H7          6.0810    1.4540    5.0810 hc        1 MOL      0.002360
     19 N2          5.8680   -2.6060    3.5310 n         1 MOL     -0.368420
     20 C7          6.2870   -3.9510    2.9880 c3        1 MOL      0.156312
     21 C8          5.8050   -4.1110    1.4490 c         1 MOL      0.373833
     22 O5          6.3470   -4.8620    0.6230 o         1 MOL     -0.482479
     23 C9          7.7820   -4.4060    3.2730 c3        1 MOL     -0.396290
     24 H8          5.3620   -2.6570    4.4060 hn        1 MOL      0.243157
     25 H9          5.6950   -4.6570    3.5830 h1        1 MOL      0.045191
     26 H10         8.0800   -5.2650    2.6570 hc        1 MOL      0.114112
     27 H11         8.5100   -3.6640    2.9450 hc        1 MOL      0.114112
     28 H12         7.8760   -4.6080    4.3350 hc        1 MOL      0.114112
     29 N3          4.7200   -3.4060    1.0930 n         1 MOL     -0.446676
     30 C10         4.1330   -3.3180   -0.2070 c3        1 MOL      0.411421
     31 C11         5.0110   -2.6340   -1.2930 c         1 MOL      0.234088
     32 O6          4.9030   -2.9660   -2.5250 o         1 MOL     -0.461657
     33 C12         3.5950   -4.7340   -0.6630 c3        1 MOL     -0.178260
     34 C13         2.5970   -4.7340   -1.8310 c         1 MOL      0.511579
     35 O7          1.8120   -3.7380   -1.9680 o         1 MOL     -0.617401
     36 O8          2.6090   -5.7540   -2.5780 o         1 MOL     -0.617401
     37 H13         4.2770   -2.7740    1.7420 hn        1 MOL      0.192873
     38 H14         3.1910   -2.7560   -0.1450 h1        1 MOL     -0.027176
     39 H15         2.9930   -5.1770    0.1290 hc        1 MOL      0.043269
     40 H16         4.4060   -5.4310   -0.8290 hc        1 MOL      0.043269
     41 N4          5.8190   -1.6690   -0.9440 n         1 MOL     -0.071748
     42 C14         6.7500   -0.9650   -1.9000 c3        1 MOL     -0.004608
     43 C15         6.1840    0.2620   -2.6060 c         1 MOL      0.453751
     44 O9          6.9310    1.1120   -3.0540 o         1 MOL     -0.539228
     45 H17         5.9740   -1.4460    0.0340 hn        1 MOL      0.121551
     46 H18         7.0650   -1.6560   -2.6780 h1        1 MOL      0.067345
     47 H19         7.7240   -0.7710   -1.4260 h1        1 MOL      0.067345
     48 N5          4.8690    0.4370   -2.6230 n         1 MOL     -0.208560
     49 C16         4.1100    1.3850   -3.5120 c3        1 MOL      0.201494
     50 C17         4.3140    2.9080   -3.2030 c         1 MOL      0.469661
     51 O10         5.0580    3.1880   -2.2840 o         1 MOL     -0.469845
     52 C18         2.5710    1.1380   -3.3670 c3        1 MOL     -0.359775
     53 C19         2.1900   -0.3530   -3.5130 c         1 MOL      0.767425
     54 N6          2.0740   -1.0820   -2.3770 n         1 MOL     -0.817781
     55 O11         2.1470   -0.8990   -4.6170 o         1 MOL     -0.630224
     56 H20         4.3830   -0.2560   -2.0780 hn        1 MOL      0.022535
     57 H21         4.4610    1.2980   -4.5480 h1        1 MOL      0.002882
     58 H22         2.0940    1.4830   -4.2860 hc        1 MOL      0.088280
     59 H23         2.1850    1.5500   -2.4280 hc        1 MOL      0.088280
     60 H24         2.2750   -0.6890   -1.4710 hn        1 MOL      0.396454
     61 H25         2.1940   -2.0820   -2.2770 hn        1 MOL      0.396454
     62 N7          3.6420    3.7300   -3.9910 n         1 MOL     -0.406508
     63 C20         3.5820    5.1600   -3.6620 c3        1 MOL     -0.116469
     64 C21         2.3990    5.6550   -2.8670 c         1 MOL      0.598422
     65 O12         1.2950    5.4190   -3.3060 o         1 MOL     -0.537444
     66 H26         3.0210    3.4250   -4.7200 hn        1 MOL      0.303547
     67 H27         3.4950    5.6130   -4.6500 h1        1 MOL      0.079778
     68 H28         4.5630    5.5460   -3.3940 h1        1 MOL      0.079778
     69 N8          2.6460    6.2280   -1.7160 n         1 MOL     -0.374661
     70 C22         1.7170    7.1080   -0.9590 c3        1 MOL     -0.343909
     71 C23         0.5310    6.4280   -0.2800 c         1 MOL      0.614981
     72 O13        -0.3910    7.0840    0.0950 o         1 MOL     -0.583510
     73 C24         2.4300    8.0450   -0.0480 c3        1 MOL      0.400238
     74 C25         3.0840    7.3530    1.1620 c3        1 MOL     -0.225770
     75 O14         3.5260    8.6210   -0.6950 oh        1 MOL     -0.601990
     76 H29         3.5820    6.3300   -1.3350 hn        1 MOL      0.286959
     77 H30         1.2780    7.7270   -1.7530 h1        1 MOL      0.147843
     78 H31         1.7020    8.7730    0.3250 h1        1 MOL      0.002522
     79 H32         3.5250    9.5430   -0.4260 ho        1 MOL      0.379264
     80 H33         3.7010    6.5120    0.8310 hc        1 MOL      0.062651
     81 H34         3.7370    8.0740    1.6450 hc        1 MOL      0.062651
     82 H35         2.2970    7.0700    1.8560 hc        1 MOL      0.062651
     83 N9          0.5760    5.1350   -0.1440 n         1 MOL     -0.262925
     84 C26        -0.3560    4.3160    0.6150 c3        1 MOL     -0.045232
     85 C27        -0.7540    3.0160   -0.1150 c         1 MOL      0.505087
     86 O15         0.0560    2.6460   -0.9960 o         1 MOL     -0.488814
     87 C28         0.1450    3.9450    2.0420 c3        1 MOL      0.239531
     88 C29         1.5740    3.4380    2.0870 c3        1 MOL     -0.014434
     89 C30        -0.0570    5.1940    2.9990 c3        1 MOL     -0.351956
     90 C31         1.8960    3.0090    3.5470 c3        1 MOL     -0.400419
     91 H36         1.3310    4.7000   -0.6570 hn        1 MOL      0.223193
     92 H37        -1.3200    4.7980    0.7870 h1        1 MOL      0.058603
     93 H38        -0.5440    3.1570    2.3500 hc        1 MOL     -0.043482
     94 H39         2.2720    4.1710    1.6820 hc        1 MOL      0.067217
     95 H40         1.7250    2.5960    1.4090 hc        1 MOL      0.067217
     96 H41         0.7640    5.9010    2.8710 hc        1 MOL      0.076627
     97 H42        -0.9980    5.7060    2.7780 hc        1 MOL      0.076627
     98 H43         0.0970    4.7690    3.9890 hc        1 MOL      0.076627
     99 H44         1.1260    2.3040    3.8430 hc        1 MOL      0.106656
    100 H45         2.8420    2.4680    3.5100 hc        1 MOL      0.106656
    101 H46         1.9470    3.8170    4.2820 hc        1 MOL      0.106656
    102 N10        -1.8960    2.3870    0.1350 n         1 MOL     -0.553760
    103 C32        -2.3000    1.0910   -0.5550 c3        1 MOL      0.042370
    104 C33        -3.8190    0.7740   -0.4890 c         1 MOL      0.503336
    105 O16        -4.2250   -0.3600   -0.8500 o         1 MOL     -0.514025
    106 C34        -1.4830   -0.0060    0.1170 c3        1 MOL     -0.010531
    107 C35        -1.1620   -1.2270   -0.7650 c         1 MOL      0.678967
    108 O17        -0.7420   -2.3410   -0.3270 o         1 MOL     -0.786642
    109 O18        -1.3480   -1.2040   -2.0280 o         1 MOL     -0.786642
    110 H47        -2.5810    2.8740    0.6850 hn        1 MOL      0.297235
    111 H48        -2.0880    1.0850   -1.6220 h1        1 MOL      0.116630
    112 H49        -1.9960   -0.3220    1.0290 hc        1 MOL      0.032607
    113 H50        -0.4910    0.3570    0.4060 hc        1 MOL      0.032607
    114 N11        -4.6560    1.7310   -0.1610 n         1 MOL     -0.441220
    115 C36        -6.1270    1.6090   -0.2190 c3        1 MOL      0.168423
    116 C37        -6.7070    0.5550    0.7680 c         1 MOL      0.390844
    117 O19        -6.4870    0.7350    1.9330 o         1 MOL     -0.463596
    118 C38        -6.8260    2.9790   -0.0860 c3        1 MOL     -0.269854
    119 C39        -8.3060    2.8610    0.0140 ca        1 MOL      0.019021
    120 C40        -9.1690    2.8040   -1.1110 ca        1 MOL     -0.067997
    121 C41        -8.9420    2.8290    1.2680 ca        1 MOL     -0.067997
    122 C42       -10.5440    2.6920   -0.9630 ca        1 MOL     -0.196012
    123 C43       -10.3070    2.7540    1.4580 ca        1 MOL     -0.196012
    124 C44       -11.0990    2.5690    0.3150 ca        1 MOL     -0.037478
    125 H51        -4.2460    2.6300    0.0250 hn        1 MOL      0.257117
    126 H52        -6.2440    1.2180   -1.2290 h1        1 MOL      0.038856
    127 H53        -6.7120    3.5910   -0.9880 hc        1 MOL      0.111206
    128 H54        -6.3450    3.4540    0.7640 hc        1 MOL      0.111206
    129 H55        -8.7760    3.1370   -2.0610 ha        1 MOL      0.102933
    130 H56        -8.3320    2.9270    2.1640 ha        1 MOL      0.102933
    131 H57       -11.2120    2.6700   -1.8100 ha        1 MOL      0.131946
    132 H58       -10.6190    2.6490    2.4820 ha        1 MOL      0.131946
    133 H59       -12.1550    2.3770    0.3630 ha        1 MOL      0.085990
    134 N12        -7.4290   -0.4730    0.3700 n         1 MOL     -0.120370
    135 C45        -8.0490   -1.5010    1.2340 c3        1 MOL     -0.005808
    136 C46        -7.0820   -2.2310    2.1680 c         1 MOL      0.239759
    137 O20        -7.3100   -2.5600    3.3490 o         1 MOL     -0.498044
    138 C47        -8.8320   -2.3760    0.2470 c3        1 MOL      0.160409
    139 C48        -9.3300   -1.3150   -0.7540 c3        1 MOL     -0.370156
    140 C49        -8.0500   -0.5930   -0.9920 c3        1 MOL      0.436183
    141 H60        -8.7760   -1.0140    1.8840 h1        1 MOL      0.073288
    142 H61        -8.1990   -3.1080   -0.2590 hc        1 MOL      0.005094
    143 H62        -9.6320   -2.9450    0.7170 hc        1 MOL      0.005094
    144 H63        -9.6070   -1.7680   -1.7160 hc        1 MOL      0.077051
    145 H64        -9.9790   -0.5770   -0.2860 hc        1 MOL      0.077051
    146 H65        -7.3960   -1.0790   -1.7080 h1        1 MOL     -0.073138
    147 H66        -8.1760    0.3650   -1.4970 h1        1 MOL     -0.073138
    148 N13        -5.8740   -2.4170    1.6560 n         1 MOL     -0.081986
    149 C50        -4.6450   -2.9810    2.3300 c3        1 MOL     -0.110792
    150 C51        -4.0000   -1.9960    3.2450 c         1 MOL      0.404113
    151 O21        -3.3450   -2.4600    4.1720 o         1 MOL     -0.558690
    152 C52        -3.6520   -3.4480    1.2250 c3        1 MOL      0.017542
    153 C53        -4.2350   -4.6310    0.4550 c3        1 MOL     -0.217463
    154 C54        -3.2540   -5.0410   -0.6080 c         1 MOL      0.767507
    155 O22        -2.7140   -6.1750   -0.4640 o         1 MOL     -0.734024
    156 O23        -3.1090   -4.2960   -1.5940 o         1 MOL     -0.734024
    157 H67        -5.7950   -2.1440    0.6840 hn        1 MOL      0.131504
    158 H68        -4.9040   -3.8390    2.9500 h1        1 MOL      0.126830
    159 H69        -2.7310   -3.8080    1.6900 hc        1 MOL      0.070617
    160 H70        -3.4130   -2.5930    0.6030 hc        1 MOL      0.070617
    161 H71        -5.1960   -4.3620    0.0150 hc        1 MOL      0.021810
    162 H72        -4.4230   -5.4610    1.1300 hc        1 MOL      0.021810
    163 N14        -4.2050   -0.6980    3.0790 n         1 MOL      0.044228
    164 C55        -3.6470    0.3820    3.9250 c3        1 MOL     -0.204416
    165 H73        -3.6250    0.0540    4.9640 h1        1 MOL      0.077259
    166 H74        -2.6340    0.6140    3.5960 h1        1 MOL      0.077259
    167 H75        -4.2700    1.2720    3.8370 h1        1 MOL      0.077259
    168 H76        -4.9130   -0.4870    2.3810 hn        1 MOL      0.029413
    169 Ca1        -0.6910   -3.6700   -2.5470 Ca        1 MOL      1.796129
    170 O24         0.7950   -3.1720   -4.7420 oh        1 MOL     -0.872909
    171 H77         0.4170   -3.3610   -5.5980 ho        1 MOL      0.417915
    172 H78         1.4160   -2.4550   -4.9070 ho        1 MOL      0.417915
    173 O25        -1.2480   -5.6660   -4.2640 oh        1 MOL     -0.872909
    174 H79        -0.9990   -6.5810   -4.4060 ho        1 MOL      0.417915
    175 H80        -2.0340   -5.5450   -4.8050 ho        1 MOL      0.417915
    176 O26        -2.4640   -2.6120   -4.2700 oh        1 MOL     -0.872909
    177 H81        -2.7720   -1.8120   -3.8390 ho        1 MOL      0.417915
    178 H82        -2.9700   -2.6580   -5.0800 ho        1 MOL      0.417915
    179 O27        -0.1710   -5.6360   -0.9260 oh        1 MOL     -0.872909
    180 H83         0.6310   -6.0700   -0.6600 ho        1 MOL      0.417915
    181 H84        -0.8540   -6.0700   -0.4090 ho        1 MOL      0.417915
@<TRIPOS>BOND
     1    1    2 1   
     2    1    4 1   
     3    1    5 1   
     4    1    6 1   
     5    2    3 2   
     6    2    7 1   
     7    7    8 1   
     8    7   15 1   
     9    8    9 1   
    10    8   11 1   
    11    8   16 1   
    12    9   10 2   
    13    9   19 1   
    14   11   12 1   
    15   11   17 1   
    16   11   18 1   
    17   12   13 1   
    18   12   14 1   
    19   19   20 1   
    20   19   24 1   
    21   20   21 1   
    22   20   23 1   
    23   20   25 1   
    24   21   22 2   
    25   21   29 1   
    26   23   26 1   
    27   23   27 1   
    28   23   28 1   
    29   29   30 1   
    30   29   37 1   
    31   30   31 1   
    32   30   33 1   
    33   30   38 1   
    34   31   32 2   
    35   31   41 1   
    36   33   34 1   
    37   33   39 1   
    38   33   40 1   
    39   34   35 1   
    40   34   36 1   
    41   41   42 1   
    42   41   45 1   
    43   42   43 1   
    44   42   46 1   
    45   42   47 1   
    46   43   44 2   
    47   43   48 1   
    48   48   49 1   
    49   48   56 1   
    50   49   50 1   
    51   49   52 1   
    52   49   57 1   
    53   50   51 2   
    54   50   62 1   
    55   52   53 1   
    56   52   58 1   
    57   52   59 1   
    58   53   54 1   
    59   53   55 2   
    60   54   60 1   
    61   54   61 1   
    62   62   63 1   
    63   62   66 1   
    64   63   64 1   
    65   63   67 1   
    66   63   68 1   
    67   64   65 2   
    68   64   69 1   
    69   69   70 1   
    70   69   76 1   
    71   70   71 1   
    72   70   73 1   
    73   70   77 1   
    74   71   72 2   
    75   71   83 1   
    76   73   74 1   
    77   73   75 1   
    78   73   78 1   
    79   74   80 1   
    80   74   81 1   
    81   74   82 1   
    82   75   79 1   
    83   83   84 1   
    84   83   91 1   
    85   84   85 1   
    86   84   87 1   
    87   84   92 1   
    88   85   86 2   
    89   85  102 1   
    90   87   88 1   
    91   87   89 1   
    92   87   93 1   
    93   88   90 1   
    94   88   94 1   
    95   88   95 1   
    96   89   96 1   
    97   89   97 1   
    98   89   98 1   
    99   90   99 1   
   100   90  100 1   
   101   90  101 1   
   102  102  103 1   
   103  102  110 1   
   104  103  104 1   
   105  103  106 1   
   106  103  111 1   
   107  104  105 2   
   108  104  114 1   
   109  106  107 1   
   110  106  112 1   
   111  106  113 1   
   112  107  108 1   
   113  107  109 1   
   114  114  115 1   
   115  114  125 1   
   116  115  116 1   
   117  115  118 1   
   118  115  126 1   
   119  116  117 2   
   120  116  134 1   
   121  118  119 1   
   122  118  127 1   
   123  118  128 1   
   124  119  120 ar  
   125  119  121 ar  
   126  120  122 ar  
   127  120  129 1   
   128  121  123 ar  
   129  121  130 1   
   130  122  124 ar  
   131  122  131 1   
   132  123  124 ar  
   133  123  132 1   
   134  124  133 1   
   135  134  135 1   
   136  134  140 1   
   137  135  136 1   
   138  135  138 1   
   139  135  141 1   
   140  136  137 2   
   141  136  148 1   
   142  138  139 1   
   143  138  142 1   
   144  138  143 1   
   145  139  140 1   
   146  139  144 1   
   147  139  145 1   
   148  140  146 1   
   149  140  147 1   
   150  148  149 1   
   151  148  157 1   
   152  149  150 1   
   153  149  152 1   
   154  149  158 1   
   155  150  151 2   
   156  150  163 1   
   157  152  153 1   
   158  152  159 1   
   159  152  160 1   
   160  153  154 1   
   161  153  161 1   
   162  153  162 1   
   163  154  155 1   
   164  154  156 1   
   165  163  164 1   
   166  163  168 1   
   167  164  165 1   
   168  164  166 1   
   169  164  167 1   
   170  170  171 1   
   171  170  172 1   
   172  173  174 1   
   173  173  175 1   
   174  176  177 1   
   175  176  178 1   
   176  179  180 1   
   177  179  181 1   
@<TRIPOS>SUBSTRUCTURE
     1 MOL         1 TEMP              0 ****  ****    0 ROOT
