@<TRIPOS>MOLECULE
MOL
  192   187     1     0     0
SMALL
resp


@<TRIPOS>ATOM
      1 C1         -3.6660   -8.0710    2.8710 c3        1 MOL     -0.349300
      2 C2         -3.7030   -7.0170    1.7520 c         1 MOL      0.649106
      3 O1         -3.6140   -7.2980    0.5670 o         1 MOL     -0.579766
      4 H1         -3.0970   -7.6830    3.7160 hc        1 MOL      0.100290
      5 H2         -4.6830   -8.2980    3.1920 hc        1 MOL      0.100290
      6 H3         -3.1910   -8.9790    2.4990 hc        1 MOL      0.100290
      7 N1         -3.6280   -5.7050    2.1160 n         1 MOL     -0.398495
      8 C3         -3.5290   -4.7370    1.0400 c3        1 MOL      0.038899
      9 C4         -2.0400   -4.4070    0.6110 c         1 MOL      0.778627
     10 O2         -1.8030   -3.8340   -0.4350 o         1 MOL     -0.677087
     11 C5         -4.2970   -3.3900    1.4060 c3        1 MOL     -0.388241
     12 C6         -3.8420   -2.7500    2.7680 c         1 MOL      0.759947
     13 O3         -4.0360   -3.4470    3.7350 o         1 MOL     -0.700885
     14 O4         -3.2830   -1.6390    2.8090 o         1 MOL     -0.700885
     15 H4         -3.8190   -5.3660    3.0490 hn        1 MOL      0.233982
     16 H5         -3.9590   -4.9590    0.0660 h1        1 MOL      0.111079
     17 H6         -5.3620   -3.6270    1.4500 hc        1 MOL      0.133896
     18 H7         -4.2170   -2.6040    0.6580 hc        1 MOL      0.133896
     19 N2         -1.1100   -4.7490    1.4740 n         1 MOL     -0.547497
     20 C7          0.2050   -4.0860    1.5100 c3        1 MOL      0.177044
     21 C8          1.2540   -4.5890    0.4360 c         1 MOL      0.453036
     22 O5          1.2390   -5.7680    0.1270 o         1 MOL     -0.542934
     23 C9          0.8460   -4.4060    2.8500 c3        1 MOL      0.039215
     24 C10         0.0330   -3.8840    4.0310 c3        1 MOL     -0.267766
     25 C11        -0.1620   -2.3780    4.0050 c3        1 MOL     -0.000811
     26 C12        -0.9560   -1.9290    5.2170 c3        1 MOL      0.064333
     27 N3         -2.1460   -2.6590    5.5080 n4        1 MOL     -0.405255
     28 H8         -1.3740   -5.3070    2.2830 hn        1 MOL      0.235946
     29 H9          0.0000   -3.0240    1.3700 h1        1 MOL      0.132613
     30 H10         1.8550   -4.0070    2.8810 hc        1 MOL      0.042129
     31 H11         0.9450   -5.4730    3.0740 hc        1 MOL      0.042129
     32 H12         0.5950   -4.2920    4.8830 hc        1 MOL      0.059432
     33 H13        -0.9130   -4.3990    4.1590 hc        1 MOL      0.059432
     34 H14        -0.7530   -2.1630    3.1210 hc        1 MOL      0.067359
     35 H15         0.7950   -1.8610    3.9820 hc        1 MOL      0.067359
     36 H16        -1.1730   -0.8720    5.0730 hx        1 MOL      0.047779
     37 H17        -0.2060   -1.9440    6.0130 hx        1 MOL      0.047779
     38 H18        -2.0820   -3.6160    5.7990 hn        1 MOL      0.321541
     39 H19        -2.6400   -2.1040    6.2020 hn        1 MOL      0.321541
     40 H20        -2.6530   -2.6400    4.6390 hn        1 MOL      0.321541
     41 N4          2.2020   -3.7970   -0.1430 n         1 MOL     -0.601533
     42 C13         2.2470   -2.3130   -0.3460 c3        1 MOL      0.135451
     43 C14         2.1360   -1.4170    0.9520 c         1 MOL      0.423485
     44 O6          1.0350   -0.9000    1.2910 o         1 MOL     -0.537297
     45 C15         1.2490   -2.0110   -1.4250 c3        1 MOL     -0.117583
     46 C16         1.3570   -2.8310   -2.6960 c         1 MOL      0.741225
     47 O7          0.6440   -3.8540   -2.7770 o         1 MOL     -0.734626
     48 O8          1.9880   -2.3190   -3.6540 o         1 MOL     -0.734626
     49 H21         2.9270   -4.2450   -0.6840 hn        1 MOL      0.364004
     50 H22         3.2680   -2.1060   -0.6530 h1        1 MOL      0.054089
     51 H23         1.3540   -0.9610   -1.6910 hc        1 MOL      0.024222
     52 H24         0.2850   -2.1960   -0.9540 hc        1 MOL      0.024222
     53 N5          3.2230   -1.2060    1.6540 n         1 MOL     -0.400227
     54 C17         4.6550   -1.5480    1.5230 c3        1 MOL      0.065749
     55 C18         5.4940   -0.7640    2.5810 c         1 MOL      0.538086
     56 O9          5.0310   -0.1180    3.5270 o         1 MOL     -0.545267
     57 H25         3.0980   -0.6690    2.5030 hn        1 MOL      0.259962
     58 H26         5.0160   -1.3750    0.5040 h1        1 MOL      0.050805
     59 H27         4.7970   -2.6190    1.6490 h1        1 MOL      0.050805
     60 N6          6.8090   -0.8030    2.4410 n         1 MOL     -0.507133
     61 C19         7.6920   -1.3770    1.4170 c3        1 MOL      0.018573
     62 C20         8.1940   -0.2850    0.4080 c         1 MOL      0.646044
     63 O10         8.6270    0.8200    0.8200 o         1 MOL     -0.533100
     64 C21         8.8140   -2.1470    2.2340 c3        1 MOL     -0.209340
     65 C22         9.9660   -2.4540    1.3200 c         1 MOL      0.715796
     66 O11         9.7780   -3.2360    0.3540 o         1 MOL     -0.660007
     67 O12        11.0480   -1.8850    1.5750 o         1 MOL     -0.660007
     68 H28         7.1980   -0.3120    3.2270 hn        1 MOL      0.312313
     69 H29         7.0820   -2.0920    0.8690 h1        1 MOL      0.021504
     70 H30         8.4810   -3.0840    2.6800 hc        1 MOL      0.069379
     71 H31         9.2630   -1.5220    2.9910 hc        1 MOL      0.069379
     72 N7          8.1670   -0.6180   -0.8810 n         1 MOL     -0.377109
     73 C23         8.6570    0.2310   -2.0390 c3        1 MOL     -0.180019
     74 C24         7.6040    1.2680   -2.4300 c         1 MOL      0.504502
     75 O13         7.8840    2.1820   -3.1710 o         1 MOL     -0.517129
     76 H32         7.7120   -1.5020   -1.0790 hn        1 MOL      0.252123
     77 H33         8.8680   -0.4460   -2.8700 h1        1 MOL      0.151310
     78 H34         9.6660    0.5990   -1.9040 h1        1 MOL      0.151310
     79 N8          6.3750    1.2060   -1.7970 n         1 MOL     -0.361216
     80 C25         5.1640    1.8810   -2.2640 c3        1 MOL      0.117612
     81 C26         4.2520    2.1450   -1.1380 c         1 MOL      0.137845
     82 O14         3.8190    1.2150   -0.3840 o         1 MOL     -0.402035
     83 C27         4.3760    0.9640   -3.2700 c3        1 MOL      0.583845
     84 C28         5.0810    0.8060   -4.5750 c3        1 MOL     -0.225116
     85 O15         3.1610    1.6080   -3.5870 oh        1 MOL     -0.739298
     86 H35         6.2010    0.3970   -1.2210 hn        1 MOL      0.159741
     87 H36         5.3630    2.8130   -2.7820 h1        1 MOL      0.073431
     88 H37         4.0440    0.0440   -2.7910 h1        1 MOL     -0.064963
     89 H38         2.5890    0.9720   -4.0330 ho        1 MOL      0.453933
     90 H39         5.2690    1.7640   -5.0620 hc        1 MOL      0.037117
     91 H40         5.9970    0.2900   -4.2740 hc        1 MOL      0.037117
     92 H41         4.4720    0.1380   -5.1930 hc        1 MOL      0.037117
     93 N9          3.9850    3.4060   -0.8490 n         1 MOL     -0.088872
     94 C29         3.5090    3.9380    0.4840 c3        1 MOL     -0.338887
     95 C30         2.2050    4.6830    0.4230 c         1 MOL      0.595395
     96 O16         1.7120    5.1160    1.4580 o         1 MOL     -0.556877
     97 C31         4.6550    4.6980    1.1460 c3        1 MOL      0.221000
     98 C32         5.0840    5.8940    0.2660 c3        1 MOL      0.089512
     99 C33         5.8830    3.7560    1.4150 c3        1 MOL     -0.233179
    100 C34         6.0360    6.9620    0.9110 c3        1 MOL     -0.418823
    101 H42         4.2510    4.1390   -1.4920 hn        1 MOL      0.203173
    102 H43         3.3900    3.0320    1.0760 h1        1 MOL      0.182543
    103 H44         4.3240    5.0510    2.1170 hc        1 MOL      0.005321
    104 H45         4.2940    6.3850   -0.3020 hc        1 MOL      0.002583
    105 H46         5.6090    5.4060   -0.5490 hc        1 MOL      0.002583
    106 H47         6.1780    3.2550    0.4890 hc        1 MOL      0.070936
    107 H48         6.7520    4.3410    1.7210 hc        1 MOL      0.070936
    108 H49         5.5810    3.0250    2.1640 hc        1 MOL      0.070936
    109 H50         6.1560    7.8030    0.2270 hc        1 MOL      0.107191
    110 H51         5.7750    7.3220    1.9030 hc        1 MOL      0.107191
    111 H52         7.0210    6.4890    0.8920 hc        1 MOL      0.107191
    112 N10         1.5470    4.8040   -0.7510 n         1 MOL     -0.381929
    113 C35         0.3680    5.6330   -0.9050 c3        1 MOL     -0.166361
    114 C36        -0.8680    5.2840   -0.1150 c         1 MOL      0.466885
    115 O17        -1.7100    6.2160    0.1090 o         1 MOL     -0.557415
    116 C37         0.1090    5.9510   -2.3650 c3        1 MOL      0.244605
    117 C38        -0.3330    4.6340   -2.8910 c3        1 MOL     -0.072454
    118 O18         1.2800    6.2510   -3.1930 oh        1 MOL     -0.575039
    119 H53         2.0310    4.5290   -1.5890 hn        1 MOL      0.273219
    120 H54         0.5650    6.6030   -0.4650 h1        1 MOL      0.110378
    121 H55        -0.6440    6.7350   -2.5110 h1        1 MOL      0.046185
    122 H56         1.1720    7.1870   -3.4070 ho        1 MOL      0.376987
    123 H57        -1.1790    4.1890   -2.3580 hc        1 MOL      0.021237
    124 H58        -0.5180    4.7810   -3.9540 hc        1 MOL      0.021237
    125 H59         0.4390    3.8780   -2.7970 hc        1 MOL      0.021237
    126 N11        -1.0410    4.0690    0.3770 n         1 MOL     -0.194174
    127 C39        -2.3570    3.5880    0.9480 c3        1 MOL      0.065736
    128 C40        -3.6070    3.7420    0.0330 c         1 MOL      0.262053
    129 O19        -3.4050    4.3000   -1.0700 o         1 MOL     -0.400165
    130 C41        -2.3430    4.1370    2.4290 c3        1 MOL      0.287162
    131 C42        -0.9530    4.3230    3.0500 c3        1 MOL     -0.167165
    132 O20        -2.9900    3.1930    3.2540 oh        1 MOL     -0.641145
    133 H60        -0.2690    3.4290    0.3380 hn        1 MOL      0.226298
    134 H61        -2.1390    2.5280    0.9780 h1        1 MOL      0.102304
    135 H62        -2.8850    5.0800    2.5280 h1        1 MOL     -0.017478
    136 H63        -3.0980    3.6410    4.1010 ho        1 MOL      0.386612
    137 H64        -0.2960    3.4560    2.9080 hc        1 MOL      0.051505
    138 H65        -0.5720    5.2230    2.5610 hc        1 MOL      0.051505
    139 H66        -0.9680    4.4800    4.1270 hc        1 MOL      0.051505
    140 N12        -4.7930    3.4650    0.4740 n         1 MOL     -0.237864
    141 C43        -6.0490    3.7810   -0.1460 c3        1 MOL     -0.022569
    142 C44        -6.4430    2.7900   -1.2790 c         1 MOL      0.467872
    143 O21        -7.1690    3.1310   -2.2350 o         1 MOL     -0.549921
    144 C45        -7.2000    3.7900    0.9420 c3        1 MOL     -0.141018
    145 C46        -7.0250    4.7890    2.1010 c3        1 MOL     -0.002035
    146 C47        -6.7690    6.2550    1.6790 c3        1 MOL     -0.135041
    147 C48        -6.4880    7.1150    2.8360 c3        1 MOL     -0.080520
    148 N13        -7.6430    7.5080    3.5820 n4        1 MOL     -0.114169
    149 H67        -4.8140    2.8680    1.2950 hn        1 MOL      0.266160
    150 H68        -5.9350    4.7220   -0.6810 h1        1 MOL      0.091275
    151 H69        -7.3240    2.7930    1.3840 hc        1 MOL      0.077447
    152 H70        -8.1220    3.9810    0.3770 hc        1 MOL      0.077447
    153 H71        -6.2310    4.4230    2.7470 hc        1 MOL      0.014018
    154 H72        -7.9090    4.7520    2.7410 hc        1 MOL      0.014018
    155 H73        -7.6180    6.5930    1.0770 hc        1 MOL      0.101526
    156 H74        -5.8880    6.2550    1.0460 hc        1 MOL      0.101526
    157 H75        -6.0700    8.0060    2.3660 hx        1 MOL      0.109170
    158 H76        -5.7400    6.5900    3.4330 hx        1 MOL      0.109170
    159 H77        -8.0250    6.6760    4.0080 hn        1 MOL      0.217776
    160 H78        -7.4790    8.1780    4.3260 hn        1 MOL      0.217776
    161 H79        -8.4030    7.9160    3.0440 hn        1 MOL      0.217776
    162 N14        -6.1190    1.4780   -1.2720 n         1 MOL     -0.184583
    163 C49        -6.4850    0.4620   -2.2420 c3        1 MOL     -0.474631
    164 C50        -7.8130   -0.0980   -1.8390 c         1 MOL      0.545551
    165 O22        -7.9120   -0.7930   -0.7920 o         1 MOL     -0.526674
    166 C51        -5.3670   -0.5780   -2.1530 c3        1 MOL      0.160286
    167 C52        -5.6090   -1.7430   -3.0330 c3        1 MOL     -0.192438
    168 C53        -4.3460   -2.6800   -3.0470 c         1 MOL      0.557278
    169 O23        -3.3170   -2.3640   -3.6240 o         1 MOL     -0.679452
    170 O24        -4.2330   -3.6800   -2.3230 o         1 MOL     -0.679452
    171 H80        -5.5050    1.2210   -0.5070 hn        1 MOL      0.179733
    172 H81        -6.4200    0.9740   -3.2020 h1        1 MOL      0.213791
    173 H82        -5.2450   -0.9130   -1.1170 hc        1 MOL      0.043484
    174 H83        -4.3880   -0.1990   -2.4520 hc        1 MOL      0.043484
    175 H84        -5.8190   -1.3560   -4.0380 hc        1 MOL      0.051656
    176 H85        -6.5060   -2.2380   -2.6780 hc        1 MOL      0.051656
    177 N15        -8.7710    0.0650   -2.7310 n         1 MOL     -0.217755
    178 C54       -10.1270   -0.4530   -2.5140 c3        1 MOL     -0.182925
    179 H86       -10.5900   -0.6730   -3.4760 h1        1 MOL      0.095914
    180 H87       -10.0780   -1.3630   -1.9170 h1        1 MOL      0.095914
    181 H88       -10.7220    0.2950   -1.9890 h1        1 MOL      0.095914
    182 H89        -8.4710    0.6350   -3.5140 hn        1 MOL      0.243272
    183 Ca1        -1.8410   -4.5610   -2.9630 Ca        1 MOL      1.793379
    184 O25        -3.4450   -6.4770   -2.0440 oh        1 MOL     -0.953454
    185 H90        -3.5680   -7.2520   -2.5910 ho        1 MOL      0.446319
    186 H91        -3.5200   -6.8110   -1.1460 ho        1 MOL      0.446319
    187 O26        -0.4110   -6.5780   -1.9070 oh        1 MOL     -0.953454
    188 H92         0.1980   -6.2270   -1.2600 ho        1 MOL      0.446319
    189 H93         0.1210   -7.1890   -2.4280 ho        1 MOL      0.446319
    190 O27        -0.8880   -3.3580   -5.1950 oh        1 MOL     -0.953454
    191 H94        -1.2630   -2.7330   -5.8170 ho        1 MOL      0.446319
    192 H95         0.0430   -3.4030   -5.4240 ho        1 MOL      0.446319
@<TRIPOS>BOND
     1    1    2 1   
     2    1    4 1   
     3    1    5 1   
     4    1    6 1   
     5    2    3 2   
     6    2    7 1   
     7    7    8 1   
     8    7   15 1   
     9    8    9 1   
    10    8   11 1   
    11    8   16 1   
    12    9   10 2   
    13    9   19 1   
    14   11   12 1   
    15   11   17 1   
    16   11   18 1   
    17   12   13 1   
    18   12   14 1   
    19   19   20 1   
    20   19   28 1   
    21   20   21 1   
    22   20   23 1   
    23   20   29 1   
    24   21   22 2   
    25   21   41 1   
    26   23   24 1   
    27   23   30 1   
    28   23   31 1   
    29   24   25 1   
    30   24   32 1   
    31   24   33 1   
    32   25   26 1   
    33   25   34 1   
    34   25   35 1   
    35   26   27 1   
    36   26   36 1   
    37   26   37 1   
    38   27   38 1   
    39   27   39 1   
    40   27   40 1   
    41   41   42 1   
    42   41   49 1   
    43   42   43 1   
    44   42   45 1   
    45   42   50 1   
    46   43   44 2   
    47   43   53 1   
    48   45   46 1   
    49   45   51 1   
    50   45   52 1   
    51   46   47 1   
    52   46   48 1   
    53   53   54 1   
    54   53   57 1   
    55   54   55 1   
    56   54   58 1   
    57   54   59 1   
    58   55   56 2   
    59   55   60 1   
    60   60   61 1   
    61   60   68 1   
    62   61   62 1   
    63   61   64 1   
    64   61   69 1   
    65   62   63 2   
    66   62   72 1   
    67   64   65 1   
    68   64   70 1   
    69   64   71 1   
    70   65   66 1   
    71   65   67 1   
    72   72   73 1   
    73   72   76 1   
    74   73   74 1   
    75   73   77 1   
    76   73   78 1   
    77   74   75 2   
    78   74   79 1   
    79   79   80 1   
    80   79   86 1   
    81   80   81 1   
    82   80   83 1   
    83   80   87 1   
    84   81   82 2   
    85   81   93 1   
    86   83   84 1   
    87   83   85 1   
    88   83   88 1   
    89   84   90 1   
    90   84   91 1   
    91   84   92 1   
    92   85   89 1   
    93   93   94 1   
    94   93  101 1   
    95   94   95 1   
    96   94   97 1   
    97   94  102 1   
    98   95   96 2   
    99   95  112 1   
   100   97   98 1   
   101   97   99 1   
   102   97  103 1   
   103   98  100 1   
   104   98  104 1   
   105   98  105 1   
   106   99  106 1   
   107   99  107 1   
   108   99  108 1   
   109  100  109 1   
   110  100  110 1   
   111  100  111 1   
   112  112  113 1   
   113  112  119 1   
   114  113  114 1   
   115  113  116 1   
   116  113  120 1   
   117  114  115 2   
   118  114  126 1   
   119  116  117 1   
   120  116  118 1   
   121  116  121 1   
   122  117  123 1   
   123  117  124 1   
   124  117  125 1   
   125  118  122 1   
   126  126  127 1   
   127  126  133 1   
   128  127  128 1   
   129  127  130 1   
   130  127  134 1   
   131  128  129 2   
   132  128  140 1   
   133  130  131 1   
   134  130  132 1   
   135  130  135 1   
   136  131  137 1   
   137  131  138 1   
   138  131  139 1   
   139  132  136 1   
   140  140  141 1   
   141  140  149 1   
   142  141  142 1   
   143  141  144 1   
   144  141  150 1   
   145  142  143 2   
   146  142  162 1   
   147  144  145 1   
   148  144  151 1   
   149  144  152 1   
   150  145  146 1   
   151  145  153 1   
   152  145  154 1   
   153  146  147 1   
   154  146  155 1   
   155  146  156 1   
   156  147  148 1   
   157  147  157 1   
   158  147  158 1   
   159  148  159 1   
   160  148  160 1   
   161  148  161 1   
   162  162  163 1   
   163  162  171 1   
   164  163  164 1   
   165  163  166 1   
   166  163  172 1   
   167  164  165 2   
   168  164  177 1   
   169  166  167 1   
   170  166  173 1   
   171  166  174 1   
   172  167  168 1   
   173  167  175 1   
   174  167  176 1   
   175  168  169 1   
   176  168  170 1   
   177  177  178 1   
   178  177  182 1   
   179  178  179 1   
   180  178  180 1   
   181  178  181 1   
   182  184  185 1   
   183  184  186 1   
   184  187  188 1   
   185  187  189 1   
   186  190  191 1   
   187  190  192 1   
@<TRIPOS>SUBSTRUCTURE
     1 MOL         1 TEMP              0 ****  ****    0 ROOT
