@<TRIPOS>MOLECULE
MOL
  191   184     1     0     0
SMALL
resp


@<TRIPOS>ATOM
      1 C1          4.7810    2.4340    1.9660 c3        1 MOL     -0.265646
      2 C2          5.8820    2.4560    0.8750 c         1 MOL      0.737327
      3 O1          5.5510    2.3400   -0.3000 o         1 MOL     -0.546397
      4 H1          4.5020    3.4570    2.2210 hc        1 MOL      0.057108
      5 H2          3.9070    1.9030    1.5900 hc        1 MOL      0.057108
      6 H3          5.1590    1.9290    2.8550 hc        1 MOL      0.057108
      7 N1          7.1320    2.5880    1.2780 n         1 MOL     -0.509454
      8 C3          8.3830    2.4160    0.4740 c3        1 MOL     -0.035475
      9 C4          8.3740    1.1310   -0.3770 c         1 MOL      0.717481
     10 O2          8.9020    1.1220   -1.4490 o         1 MOL     -0.543572
     11 C5          8.8220    3.6500   -0.2840 c3        1 MOL     -0.316118
     12 C6          8.7010    5.0410    0.4320 c         1 MOL      0.719071
     13 O3          9.0780    5.1820    1.6440 o         1 MOL     -0.637703
     14 O4          8.2770    6.0500   -0.1930 o         1 MOL     -0.637703
     15 H4          7.2410    2.9650    2.2040 hn        1 MOL      0.284440
     16 H5          9.1730    2.1680    1.1870 h1        1 MOL      0.063084
     17 H6          8.1670    3.7820   -1.1450 hc        1 MOL      0.100664
     18 H7          9.8350    3.4520   -0.6320 hc        1 MOL      0.100664
     19 N2          7.8810    0.0350    0.1890 n         1 MOL     -0.549326
     20 C7          7.9990   -1.2960   -0.4170 c3        1 MOL      0.106014
     21 C8          6.5880   -1.9860   -0.5790 c         1 MOL      0.713066
     22 O5          6.4130   -2.8850   -1.3840 o         1 MOL     -0.636260
     23 C9          9.0340   -2.0320    0.4510 c3        1 MOL     -0.091939
     24 C10         9.6400   -3.2870   -0.2430 c3        1 MOL     -0.041003
     25 C11        10.6070   -3.9490    0.6690 c3        1 MOL      0.000132
     26 C12        11.8070   -3.1280    1.0750 c3        1 MOL      0.109249
     27 N3         12.3940   -3.6790    2.2300 n4        1 MOL     -0.388774
     28 H8          7.4310    0.1340    1.0880 hn        1 MOL      0.204170
     29 H9          8.3600   -1.2940   -1.4440 h1        1 MOL      0.078851
     30 H10         8.5070   -2.3150    1.3680 hc        1 MOL      0.024121
     31 H11         9.8270   -1.3180    0.6780 hc        1 MOL      0.024121
     32 H12        10.2390   -3.0160   -1.1150 hc        1 MOL      0.050727
     33 H13         8.8750   -4.0020   -0.5320 hc        1 MOL      0.050727
     34 H14        11.0220   -4.8610    0.2490 hc        1 MOL      0.009102
     35 H15        10.0050   -4.0860    1.5660 hc        1 MOL      0.009102
     36 H16        11.5130   -2.1220    1.3720 hx        1 MOL      0.074308
     37 H17        12.4930   -3.0370    0.2470 hx        1 MOL      0.074308
     38 H18        13.1780   -3.1150    2.5310 hn        1 MOL      0.272341
     39 H19        11.6750   -3.7080    2.9490 hn        1 MOL      0.272341
     40 H20        12.8370   -4.5790    2.0990 hn        1 MOL      0.272341
     41 N4          5.5770   -1.5690    0.1650 n         1 MOL     -0.649404
     42 C13         4.1890   -2.1130    0.0360 c3        1 MOL      0.049248
     43 C14         3.7650   -1.8530   -1.4550 c         1 MOL      0.692951
     44 O6          3.6610   -0.6680   -1.8440 o         1 MOL     -0.573177
     45 C15         3.2680   -1.4380    1.0030 c3        1 MOL     -0.107163
     46 C16         1.8720   -1.8220    0.7580 c         1 MOL      0.572418
     47 O7          1.0280   -1.1940    1.4460 o         1 MOL     -0.636974
     48 O8          1.4910   -2.8450    0.1650 o         1 MOL     -0.636974
     49 H21         5.8120   -0.9270    0.9040 hn        1 MOL      0.344192
     50 H22         4.1990   -3.1950    0.1920 h1        1 MOL      0.025120
     51 H23         3.3590   -0.3500    0.9420 hc        1 MOL      0.059416
     52 H24         3.5820   -1.6750    2.0270 hc        1 MOL      0.059416
     53 N5          3.2510   -2.8620   -2.0730 n         1 MOL     -0.223003
     54 C17         2.7160   -2.7980   -3.4440 c3        1 MOL     -0.222411
     55 C18         1.4020   -1.9440   -3.5520 c         1 MOL      0.522159
     56 O9          1.1740   -1.3530   -4.5930 o         1 MOL     -0.539909
     57 H25         3.4320   -3.7720   -1.6750 hn        1 MOL      0.220765
     58 H26         2.4520   -3.8290   -3.6470 h1        1 MOL      0.125355
     59 H27         3.4470   -2.4940   -4.2010 h1        1 MOL      0.125355
     60 N6          0.5940   -1.8140   -2.4960 n         1 MOL      0.185851
     61 C19        -0.4710   -0.8180   -2.4530 c3        1 MOL     -0.154341
     62 C20         0.0340    0.6350   -2.3470 c         1 MOL      0.644164
     63 O10        -0.6730    1.4020   -2.9190 o         1 MOL     -0.546939
     64 C21        -1.4020   -1.0870   -1.2350 c3        1 MOL     -0.166904
     65 C22        -1.9890   -2.4540   -1.3090 c         1 MOL      0.668589
     66 N7         -2.8660   -2.6780   -2.2790 n         1 MOL     -0.702611
     67 O11        -1.7660   -3.3110   -0.5270 o         1 MOL     -0.560042
     68 H28         0.8570   -2.2610   -1.6330 hn        1 MOL     -0.574284
     69 H29        -1.1150   -1.0020   -3.2990 h1        1 MOL      0.048855
     70 H30        -2.2480   -0.4130   -1.1200 hc        1 MOL      0.111736
     71 H31        -0.7440   -0.9650   -0.3780 hc        1 MOL      0.111736
     72 H32        -2.9470   -2.0160   -3.0340 hn        1 MOL      0.347973
     73 H33        -3.2780   -3.5930   -2.3280 hn        1 MOL      0.347973
     74 N8          1.1800    0.8990   -1.7580 n         1 MOL     -0.420628
     75 C23         1.8230    2.2010   -1.6650 c3        1 MOL     -0.040600
     76 C24         1.1930    3.1980   -0.8150 c         1 MOL      0.617495
     77 O12         0.9570    2.8740    0.3360 o         1 MOL     -0.550371
     78 H34         1.6500    0.0870   -1.3890 hn        1 MOL      0.415643
     79 H35         1.8840    2.5610   -2.6980 h1        1 MOL      0.077155
     80 H36         2.8480    2.1940   -1.2860 h1        1 MOL      0.077155
     81 N9          0.7250    4.3390   -1.3090 n         1 MOL     -0.643142
     82 C25        -0.2310    5.3120   -0.7110 c3        1 MOL      0.220733
     83 C26        -1.6570    4.8870   -0.2570 c         1 MOL      0.273020
     84 O13        -2.6980    5.5340   -0.5940 o         1 MOL     -0.490518
     85 C27         0.5010    6.1420    0.3400 c3        1 MOL     -0.101198
     86 C28        -0.2070    7.4070    0.8460 ca        1 MOL      0.020547
     87 C29        -0.3230    8.5240   -0.0220 ca        1 MOL     -0.191832
     88 C30        -0.9280    7.3190    2.0510 ca        1 MOL     -0.191832
     89 C31        -1.2260    9.5650    0.2870 ca        1 MOL     -0.195632
     90 C32        -1.7440    8.3700    2.3500 ca        1 MOL     -0.195632
     91 C33        -1.9400    9.4630    1.5270 ca        1 MOL      0.314540
     92 O14        -2.7140   10.4320    2.0290 oh        1 MOL     -0.477031
     93 H37         1.1080    4.6180   -2.2040 hn        1 MOL      0.338823
     94 H38        -0.4580    6.0340   -1.4980 h1        1 MOL      0.063600
     95 H39         1.4860    6.5320    0.0750 hc        1 MOL      0.069161
     96 H40         0.7520    5.4600    1.1500 hc        1 MOL      0.069161
     97 H41         0.0860    8.4770   -1.0150 ha        1 MOL      0.150031
     98 H42        -0.8540    6.4850    2.7160 ha        1 MOL      0.150031
     99 H43        -1.2570   10.4280   -0.3630 ha        1 MOL      0.131489
    100 H44        -2.3140    8.3640    3.2630 ha        1 MOL      0.131489
    101 H45        -3.1860   10.1040    2.7970 ho        1 MOL      0.344936
    102 N10        -1.6470    3.8190    0.5820 n         1 MOL     -0.098559
    103 C34        -2.7040    2.9490    1.1040 c3        1 MOL     -0.002456
    104 C35        -3.5150    2.2590   -0.0100 c         1 MOL      0.394365
    105 O15        -3.9110    1.1080    0.1940 o         1 MOL     -0.591218
    106 C36        -3.6270    3.7090    2.0930 c3        1 MOL      0.022376
    107 C37        -2.9820    4.1680    3.4310 c3        1 MOL      0.083435
    108 C38        -4.7470    2.8100    2.5910 c3        1 MOL     -0.156880
    109 C39        -2.4570    3.0750    4.4180 c3        1 MOL     -0.187472
    110 H46        -0.7400    3.4700    0.8670 hn        1 MOL      0.216654
    111 H47        -2.1900    2.1930    1.6940 h1        1 MOL      0.103807
    112 H48        -3.9760    4.6150    1.6030 hc        1 MOL      0.008970
    113 H49        -3.7360    4.7350    3.9800 hc        1 MOL     -0.031525
    114 H50        -2.1430    4.7930    3.1350 hc        1 MOL     -0.031525
    115 H51        -5.3180    3.1120    3.4790 hc        1 MOL      0.052735
    116 H52        -5.5530    2.6040    1.8860 hc        1 MOL      0.052735
    117 H53        -4.4110    1.8260    2.9150 hc        1 MOL      0.052735
    118 H54        -1.9070    2.3020    3.8960 hc        1 MOL      0.049241
    119 H55        -1.7110    3.5540    5.0440 hc        1 MOL      0.049241
    120 H56        -3.3110    2.6790    4.9790 hc        1 MOL      0.049241
    121 N11        -3.8450    2.8230   -1.1350 n         1 MOL     -0.305287
    122 C40        -4.4260    2.0790   -2.3100 c3        1 MOL     -0.176227
    123 C41        -5.8920    1.7630   -2.2730 c         1 MOL      0.454211
    124 O16        -6.3580    1.1510   -3.2340 o         1 MOL     -0.543011
    125 C42        -4.1820    2.8980   -3.5390 c3        1 MOL      0.291741
    126 O17        -2.8350    3.1500   -3.7420 oh        1 MOL     -0.640697
    127 H57        -3.6390    3.7830   -1.3730 hn        1 MOL      0.277106
    128 H58        -3.9000    1.1250   -2.3760 h1        1 MOL      0.142276
    129 H59        -4.7680    3.8230   -3.5860 h1        1 MOL      0.035670
    130 H60        -4.4930    2.3270   -4.4190 h1        1 MOL      0.035670
    131 H61        -2.2810    2.3770   -3.7390 ho        1 MOL      0.402071
    132 N12        -6.5810    2.1530   -1.2190 n         1 MOL     -0.333437
    133 C43        -8.0220    1.8810   -0.9900 c3        1 MOL      0.321860
    134 C44        -8.3590    0.3940   -0.8980 c         1 MOL      0.468237
    135 O18        -9.5270    0.0460   -1.0120 o         1 MOL     -0.542832
    136 C45        -8.8540    2.7750   -1.8870 c3        1 MOL     -0.433824
    137 H62        -6.1870    2.7970   -0.5580 hn        1 MOL      0.231442
    138 H63        -8.2260    2.2800   -0.0020 h1        1 MOL      0.020633
    139 H64        -8.9700    2.3650   -2.8870 hc        1 MOL      0.118586
    140 H65        -9.7930    2.8350   -1.3370 hc        1 MOL      0.118586
    141 H66        -8.4010    3.7740   -1.9700 hc        1 MOL      0.118586
    142 N13        -7.3890   -0.4550   -0.6400 n         1 MOL     -0.610014
    143 C46        -7.5610   -1.9330   -0.7600 c3        1 MOL      0.423969
    144 C47        -6.6750   -2.6930    0.2810 c         1 MOL      0.217479
    145 O19        -5.6690   -2.1630    0.7070 o         1 MOL     -0.358791
    146 C48        -7.1040   -2.2280   -2.2140 c3        1 MOL     -0.147460
    147 H67        -6.4910   -0.1050   -0.3630 hn        1 MOL      0.296805
    148 H68        -8.5930   -2.2670   -0.7670 h1        1 MOL     -0.007272
    149 H69        -7.2700   -3.2650   -2.4960 hc        1 MOL      0.044803
    150 H70        -7.7440   -1.6360   -2.8640 hc        1 MOL      0.044803
    151 H71        -6.0200   -2.1250   -2.3250 hc        1 MOL      0.044803
    152 N14        -7.0270   -3.9020    0.6030 n         1 MOL     -0.366978
    153 C49        -6.5090   -4.5790    1.8010 c3        1 MOL     -0.073550
    154 C50        -6.8890   -3.9490    3.1980 c         1 MOL      0.325181
    155 O20        -6.1500   -3.9870    4.1960 o         1 MOL     -0.472795
    156 C51        -4.9360   -4.8620    1.7040 c3        1 MOL      0.202713
    157 C52        -4.6030   -5.5020    0.3020 c3        1 MOL     -0.217016
    158 C53        -3.2340   -5.9530    0.2140 c         1 MOL      0.874566
    159 O21        -2.8420   -6.5070   -0.8900 o         1 MOL     -0.817724
    160 O22        -2.4230   -5.9060    1.1730 o         1 MOL     -0.817724
    161 H72        -7.7720   -4.3400    0.0780 hn        1 MOL      0.276296
    162 H73        -7.0280   -5.5380    1.7830 h1        1 MOL      0.071314
    163 H74        -4.7110   -5.5930    2.4840 hc        1 MOL      0.004499
    164 H75        -4.3050   -4.0010    1.9420 hc        1 MOL      0.004499
    165 H76        -4.6560   -4.7470   -0.4870 hc        1 MOL      0.029626
    166 H77        -5.3130   -6.3190    0.1360 hc        1 MOL      0.029626
    167 N15        -8.0260   -3.2590    3.2040 n         1 MOL     -0.088392
    168 C54        -8.6110   -2.5590    4.2250 c3        1 MOL     -0.137381
    169 H78        -8.3480   -1.5050    4.1400 h1        1 MOL      0.069861
    170 H79        -9.6940   -2.6690    4.1680 h1        1 MOL      0.069861
    171 H80        -8.2570   -2.9450    5.1800 h1        1 MOL      0.069861
    172 H81        -8.5970   -3.3730    2.3740 hn        1 MOL      0.167740
    173 Ca1         0.0430   -4.9480    0.6550 Ca        1 MOL      1.837823
    174 O23         0.6640   -6.7590    2.5380 oh        1 MOL     -0.810505
    175 H82         0.8760   -7.6850    2.4220 ho        1 MOL      0.399942
    176 H83         1.1760   -6.5050    3.3170 ho        1 MOL      0.399942
    177 O24        -0.3020   -7.2530   -0.4950 oh        1 MOL     -0.810505
    178 H84        -0.0240   -8.1690   -0.5440 ho        1 MOL      0.399942
    179 H85        -1.2510   -7.2920   -0.6440 ho        1 MOL      0.399942
    180 O25         0.3730   -5.0740   -1.9540 oh        1 MOL     -0.810505
    181 H86         0.4520   -6.0250   -2.0410 ho        1 MOL      0.399942
    182 H87        -0.0320   -4.7880   -2.7700 ho        1 MOL      0.399942
    183 O26         1.5760   -4.0460    2.8270 oh        1 MOL     -0.810505
    184 H88         1.3820   -3.1030    2.8620 ho        1 MOL      0.399942
    185 H89         2.4250   -4.1330    3.2580 ho        1 MOL      0.399942
    186 O27        -1.3140   -2.9970    2.1010 oh        1 MOL     -0.810505
    187 H90        -2.1280   -2.5140    1.9450 ho        1 MOL      0.399942
    188 H91        -0.6380   -2.3170    2.1190 ho        1 MOL      0.399942
    189 O28         2.4410   -5.8790    0.3580 oh        1 MOL     -0.810505
    190 H92         2.7850   -6.7550    0.2130 ho        1 MOL      0.399942
    191 H93         3.1510   -5.2950    0.0950 ho        1 MOL      0.399942
@<TRIPOS>BOND
     1    1    2 1   
     2    1    4 1   
     3    1    5 1   
     4    1    6 1   
     5    2    3 2   
     6    2    7 1   
     7    7    8 1   
     8    7   15 1   
     9    8    9 1   
    10    8   11 1   
    11    8   16 1   
    12    9   10 2   
    13    9   19 1   
    14   11   12 1   
    15   11   17 1   
    16   11   18 1   
    17   12   13 1   
    18   12   14 1   
    19   19   20 1   
    20   19   28 1   
    21   20   21 1   
    22   20   23 1   
    23   20   29 1   
    24   21   22 2   
    25   21   41 1   
    26   23   24 1   
    27   23   30 1   
    28   23   31 1   
    29   24   25 1   
    30   24   32 1   
    31   24   33 1   
    32   25   26 1   
    33   25   34 1   
    34   25   35 1   
    35   26   27 1   
    36   26   36 1   
    37   26   37 1   
    38   27   38 1   
    39   27   39 1   
    40   27   40 1   
    41   41   42 1   
    42   41   49 1   
    43   42   43 1   
    44   42   45 1   
    45   42   50 1   
    46   43   44 2   
    47   43   53 1   
    48   45   46 1   
    49   45   51 1   
    50   45   52 1   
    51   46   47 1   
    52   46   48 1   
    53   53   54 1   
    54   53   57 1   
    55   54   55 1   
    56   54   58 1   
    57   54   59 1   
    58   55   56 2   
    59   55   60 1   
    60   60   61 1   
    61   60   68 1   
    62   61   62 1   
    63   61   64 1   
    64   61   69 1   
    65   62   63 2   
    66   62   74 1   
    67   64   65 1   
    68   64   70 1   
    69   64   71 1   
    70   65   66 1   
    71   65   67 2   
    72   66   72 1   
    73   66   73 1   
    74   74   75 1   
    75   74   78 1   
    76   75   76 1   
    77   75   79 1   
    78   75   80 1   
    79   76   77 2   
    80   76   81 1   
    81   81   82 1   
    82   81   93 1   
    83   82   83 1   
    84   82   85 1   
    85   82   94 1   
    86   83   84 2   
    87   83  102 1   
    88   85   86 1   
    89   85   95 1   
    90   85   96 1   
    91   86   87 ar  
    92   86   88 ar  
    93   87   89 ar  
    94   87   97 1   
    95   88   90 ar  
    96   88   98 1   
    97   89   91 ar  
    98   89   99 1   
    99   90   91 ar  
   100   90  100 1   
   101   91   92 1   
   102   92  101 1   
   103  102  103 1   
   104  102  110 1   
   105  103  104 1   
   106  103  106 1   
   107  103  111 1   
   108  104  105 2   
   109  104  121 1   
   110  106  107 1   
   111  106  108 1   
   112  106  112 1   
   113  107  109 1   
   114  107  113 1   
   115  107  114 1   
   116  108  115 1   
   117  108  116 1   
   118  108  117 1   
   119  109  118 1   
   120  109  119 1   
   121  109  120 1   
   122  121  122 1   
   123  121  127 1   
   124  122  123 1   
   125  122  125 1   
   126  122  128 1   
   127  123  124 2   
   128  123  132 1   
   129  125  126 1   
   130  125  129 1   
   131  125  130 1   
   132  126  131 1   
   133  132  133 1   
   134  132  137 1   
   135  133  134 1   
   136  133  136 1   
   137  133  138 1   
   138  134  135 2   
   139  134  142 1   
   140  136  139 1   
   141  136  140 1   
   142  136  141 1   
   143  142  143 1   
   144  142  147 1   
   145  143  144 1   
   146  143  146 1   
   147  143  148 1   
   148  144  145 2   
   149  144  152 1   
   150  146  149 1   
   151  146  150 1   
   152  146  151 1   
   153  152  153 1   
   154  152  161 1   
   155  153  154 1   
   156  153  156 1   
   157  153  162 1   
   158  154  155 2   
   159  154  167 1   
   160  156  157 1   
   161  156  163 1   
   162  156  164 1   
   163  157  158 1   
   164  157  165 1   
   165  157  166 1   
   166  158  159 1   
   167  158  160 1   
   168  167  168 1   
   169  167  172 1   
   170  168  169 1   
   171  168  170 1   
   172  168  171 1   
   173  174  175 1   
   174  174  176 1   
   175  177  178 1   
   176  177  179 1   
   177  180  181 1   
   178  180  182 1   
   179  183  184 1   
   180  183  185 1   
   181  186  187 1   
   182  186  188 1   
   183  189  190 1   
   184  189  191 1   
@<TRIPOS>SUBSTRUCTURE
     1 MOL         1 TEMP              0 ****  ****    0 ROOT
