@<TRIPOS>MOLECULE
MOL
  178   175     1     0     0
SMALL
resp


@<TRIPOS>ATOM
      1 C1          3.0250   -1.5840    4.4890 c3        1 MOL     -0.410112
      2 C2          4.2720   -0.7430    4.1630 c         1 MOL      0.752193
      3 O1          4.3260    0.5000    4.2510 o         1 MOL     -0.594722
      4 H1          2.9030   -1.6480    5.5710 hc        1 MOL      0.105953
      5 H2          2.1450   -1.1140    4.0520 hc        1 MOL      0.105953
      6 H3          3.1440   -2.5870    4.0780 hc        1 MOL      0.105953
      7 N1          5.3230   -1.4540    3.8820 n         1 MOL     -0.756331
      8 C3          6.7500   -0.9490    3.6980 c3        1 MOL      0.338193
      9 C4          7.4170   -1.4940    2.4250 c         1 MOL      0.448364
     10 O2          8.2140   -0.7740    1.8300 o         1 MOL     -0.456838
     11 C5          7.4940   -1.1740    5.0210 c3        1 MOL     -0.048352
     12 C6          8.8360   -0.4400    4.9820 c         1 MOL      0.628451
     13 O3          9.8020   -1.1050    4.6450 o         1 MOL     -0.704801
     14 O4          8.8580    0.7880    5.1320 o         1 MOL     -0.704801
     15 H4          5.2940   -2.4600    3.8920 hn        1 MOL      0.334008
     16 H5          6.6510    0.1200    3.4850 h1        1 MOL      0.020594
     17 H6          7.6560   -2.2460    5.1610 hc        1 MOL     -0.037222
     18 H7          7.0060   -0.7540    5.8960 hc        1 MOL     -0.037222
     19 N2          7.0360   -2.7480    2.1320 n         1 MOL     -0.532886
     20 C7          7.5440   -3.4830    0.9300 c3        1 MOL      0.383539
     21 C8          7.0750   -2.5900   -0.2480 c         1 MOL      0.429544
     22 O5          7.8650   -2.1820   -1.0980 o         1 MOL     -0.485267
     23 C9          9.0100   -3.7740    0.9470 c3        1 MOL     -0.542798
     24 H8          6.2250   -3.1040    2.6080 hn        1 MOL      0.230452
     25 H9          7.0120   -4.4130    0.7510 h1        1 MOL      0.016524
     26 H10         9.5190   -2.8140    0.9800 hc        1 MOL      0.147886
     27 H11         9.1640   -4.3570    1.8570 hc        1 MOL      0.147886
     28 H12         9.2990   -4.3370    0.0600 hc        1 MOL      0.147886
     29 N3          5.7290   -2.4350   -0.3680 n         1 MOL     -0.605986
     30 C10         5.1380   -1.8150   -1.6020 c3        1 MOL      0.385365
     31 C11         5.7790   -0.5090   -2.1260 c         1 MOL      0.484746
     32 O6          6.3600   -0.4820   -3.2100 o         1 MOL     -0.512880
     33 C12         4.8870   -2.8610   -2.7110 c3        1 MOL     -0.480759
     34 C13         4.0690   -4.0970   -2.2570 c         1 MOL      0.784388
     35 O7          4.6240   -5.2400   -2.2650 o         1 MOL     -0.688418
     36 O8          2.9330   -3.8560   -1.7880 o         1 MOL     -0.688418
     37 H13         5.1930   -2.8440    0.3870 hn        1 MOL      0.342626
     38 H14         4.1510   -1.5480   -1.2310 h1        1 MOL     -0.064832
     39 H15         5.8630   -3.1460   -3.0800 hc        1 MOL      0.097486
     40 H16         4.3870   -2.4590   -3.5880 hc        1 MOL      0.097486
     41 N4          5.5820    0.6360   -1.3730 n         1 MOL     -0.232863
     42 C14         6.0010    1.9880   -1.7880 c3        1 MOL     -0.380721
     43 C15         4.8920    2.7630   -2.6460 c         1 MOL      0.566764
     44 O9          5.2230    3.8270   -3.2560 o         1 MOL     -0.547261
     45 H17         5.1160    0.5230   -0.4910 hn        1 MOL      0.231570
     46 H18         6.9610    1.8100   -2.2730 h1        1 MOL      0.178953
     47 H19         6.2810    2.4420   -0.8400 h1        1 MOL      0.178953
     48 N5          3.6680    2.1780   -2.6960 n         1 MOL     -0.225529
     49 C16         2.6030    2.5610   -3.6770 c3        1 MOL     -0.223104
     50 C17         2.0680    4.0060   -3.4330 c         1 MOL      0.598626
     51 O10         1.4630    4.5740   -4.3300 o         1 MOL     -0.516433
     52 C18         1.4160    1.5980   -3.5610 c3        1 MOL     -0.444491
     53 C19         1.8520    0.2540   -3.9650 c         1 MOL      0.732711
     54 N6          2.4680    0.0770   -5.0970 n         1 MOL     -0.699317
     55 O11         1.7510   -0.6850   -3.2310 o         1 MOL     -0.562067
     56 H20         3.6480    1.2820   -2.2330 hn        1 MOL      0.192156
     57 H21         2.9860    2.5620   -4.6980 h1        1 MOL      0.132367
     58 H22         0.5820    1.8640   -4.2150 hc        1 MOL      0.187074
     59 H23         1.1020    1.5880   -2.5120 hc        1 MOL      0.187074
     60 H24         2.3710    0.7800   -5.8240 hn        1 MOL      0.331576
     61 H25         2.7610   -0.8480   -5.3940 hn        1 MOL      0.331576
     62 N7          2.3080    4.5910   -2.2190 n         1 MOL     -0.258058
     63 C20         2.1600    6.0540   -1.8520 c3        1 MOL     -0.150157
     64 C21         0.7620    6.5360   -1.7630 c         1 MOL      0.508828
     65 O12        -0.0180    6.4510   -2.6940 o         1 MOL     -0.468454
     66 H26         2.7980    4.0160   -1.5380 hn        1 MOL      0.213621
     67 H27         2.6150    6.7090   -2.5980 h1        1 MOL      0.081254
     68 H28         2.6550    6.2460   -0.9030 h1        1 MOL      0.081254
     69 N8          0.4050    7.0290   -0.5860 n         1 MOL     -0.268671
     70 C22        -0.9160    7.6050   -0.3080 c3        1 MOL     -0.303279
     71 C23        -1.8750    6.6830    0.3780 c         1 MOL      0.613269
     72 O13        -3.0400    7.0400    0.5270 o         1 MOL     -0.595216
     73 C24        -0.8010    8.8690    0.5330 c3        1 MOL      0.434069
     74 C25        -0.4080    8.7250    2.0060 c3        1 MOL     -0.183577
     75 O14         0.0840    9.7640   -0.0320 oh        1 MOL     -0.623947
     76 H29         1.1350    7.1920    0.0900 hn        1 MOL      0.242359
     77 H30        -1.4260    7.9530   -1.2070 h1        1 MOL      0.157344
     78 H31        -1.7560    9.3920    0.4770 h1        1 MOL      0.039798
     79 H32         0.9840    9.4240   -0.0980 ho        1 MOL      0.356045
     80 H33         0.0430    9.6570    2.3350 hc        1 MOL      0.035910
     81 H34        -1.2730    8.5620    2.6520 hc        1 MOL      0.035910
     82 H35         0.2740    7.8870    2.1790 hc        1 MOL      0.035910
     83 N9         -1.4670    5.4660    0.7660 n         1 MOL     -0.234755
     84 C26        -2.2590    4.3090    1.2730 c3        1 MOL     -0.225967
     85 C27        -1.8400    3.0080    0.5660 c         1 MOL      0.735773
     86 O15        -0.9040    3.0110   -0.1880 o         1 MOL     -0.528504
     87 C28        -2.1290    4.0780    2.7940 c3        1 MOL      0.208014
     88 C29        -0.7270    3.7420    3.3190 c3        1 MOL     -0.417554
     89 C30        -2.6970    5.3360    3.4760 c3        1 MOL     -0.442015
     90 C31        -0.5940    3.0560    4.6660 c3        1 MOL      0.134073
     91 H36        -0.5000    5.2970    0.5600 hn        1 MOL      0.130645
     92 H37        -3.3020    4.4690    1.0030 h1        1 MOL      0.126766
     93 H38        -2.8080    3.2360    2.9030 hc        1 MOL     -0.006039
     94 H39        -0.2410    4.7010    3.5030 hc        1 MOL      0.150711
     95 H40        -0.2610    3.0530    2.6060 hc        1 MOL      0.150711
     96 H41        -2.1540    6.2460    3.2210 hc        1 MOL      0.116603
     97 H42        -3.7570    5.3600    3.2080 hc        1 MOL      0.116603
     98 H43        -2.5950    5.2670    4.5560 hc        1 MOL      0.116603
     99 H44        -1.1450    2.1180    4.5560 hc        1 MOL     -0.014675
    100 H45         0.4080    2.8800    5.0490 hc        1 MOL     -0.014675
    101 H46        -1.1120    3.6390    5.4210 hc        1 MOL     -0.014675
    102 N10        -2.6470    1.9330    0.7270 n         1 MOL     -0.728678
    103 C32        -2.6230    0.6830    0.0190 c3        1 MOL      0.274878
    104 C33        -3.9810   -0.1080   -0.1720 c         1 MOL      0.376073
    105 O16        -3.9210   -1.3260   -0.4570 o         1 MOL     -0.417472
    106 C34        -1.4800   -0.2010    0.5340 c3        1 MOL      0.029795
    107 C35        -0.6640   -0.9160   -0.4940 c         1 MOL      0.484153
    108 O17         0.3400   -1.5510   -0.0710 o         1 MOL     -0.676588
    109 O18        -0.9410   -0.9120   -1.7190 o         1 MOL     -0.676588
    110 H47        -3.4090    2.1620    1.3410 hn        1 MOL      0.331859
    111 H48        -2.4190    0.9280   -1.0260 h1        1 MOL      0.027818
    112 H49        -1.9580   -0.9530    1.1670 hc        1 MOL      0.004941
    113 H50        -0.7710    0.3950    1.1150 hc        1 MOL      0.004941
    114 N11        -5.1120    0.5680    0.0120 n         1 MOL     -0.371761
    115 C36        -6.4380    0.0430   -0.3140 c3        1 MOL      0.191279
    116 C37        -6.6320   -1.2170    0.5340 c         1 MOL      0.424437
    117 O19        -6.5760   -1.1810    1.7620 o         1 MOL     -0.530434
    118 C38        -7.4880    1.1510    0.0460 c3        1 MOL     -0.233746
    119 C39        -8.9190    0.6300   -0.0940 ca        1 MOL      0.105305
    120 C40        -9.3850    0.4560   -1.4050 ca        1 MOL     -0.171877
    121 C41        -9.7200    0.3280    1.0010 ca        1 MOL     -0.171877
    122 C42       -10.5750   -0.2600   -1.6080 ca        1 MOL     -0.123424
    123 C43       -10.9470   -0.3400    0.8380 ca        1 MOL     -0.123424
    124 C44       -11.3660   -0.6240   -0.4430 ca        1 MOL     -0.102415
    125 H51        -5.0240    1.4700    0.4510 hn        1 MOL      0.209893
    126 H52        -6.5670   -0.1070   -1.3930 h1        1 MOL      0.005736
    127 H53        -7.3110    2.0430   -0.5430 hc        1 MOL      0.094203
    128 H54        -7.2980    1.4080    1.0940 hc        1 MOL      0.094203
    129 H55        -8.8550    0.7940   -2.2800 ha        1 MOL      0.132133
    130 H56        -9.3490    0.3230    2.0120 ha        1 MOL      0.132133
    131 H57       -10.8630   -0.5810   -2.5920 ha        1 MOL      0.122187
    132 H58       -11.5600   -0.6360    1.6740 ha        1 MOL      0.122187
    133 H59       -12.2950   -1.1350   -0.6440 ha        1 MOL      0.089499
    134 N12        -6.9190   -2.3630   -0.1270 n         1 MOL     -0.105014
    135 C45        -7.1340   -3.6670    0.5190 c3        1 MOL      0.139545
    136 C46        -6.0000   -4.1110    1.5180 c         1 MOL      0.290902
    137 O20        -6.2820   -4.6700    2.5240 o         1 MOL     -0.484313
    138 C47        -7.4390   -4.6860   -0.5960 c3        1 MOL     -0.227388
    139 C48        -6.7420   -4.0320   -1.8470 c3        1 MOL      0.062181
    140 C49        -6.9540   -2.5430   -1.5590 c3        1 MOL     -0.134415
    141 H60        -8.0250   -3.5900    1.1510 h1        1 MOL      0.033984
    142 H61        -7.1310   -5.7090   -0.3860 hc        1 MOL      0.079782
    143 H62        -8.5090   -4.6510   -0.7600 hc        1 MOL      0.079782
    144 H63        -5.6800   -4.2790   -1.8490 hc        1 MOL      0.005721
    145 H64        -7.2020   -4.2720   -2.7990 hc        1 MOL      0.005721
    146 H65        -6.1670   -2.0170   -2.0980 h1        1 MOL      0.066549
    147 H66        -7.9170   -2.2520   -1.9660 h1        1 MOL      0.066549
    148 N13        -4.7440   -3.7580    1.2030 n         1 MOL     -0.025333
    149 C50        -3.6250   -3.9720    2.1070 c3        1 MOL     -0.234908
    150 C51        -3.6630   -3.2940    3.4860 c         1 MOL      0.400757
    151 O21        -3.3290   -3.8630    4.5160 o         1 MOL     -0.521382
    152 C52        -2.2740   -3.8260    1.3090 c3        1 MOL      0.049724
    153 C53        -1.7490   -5.1530    0.7290 c3        1 MOL     -0.394039
    154 C54        -0.8350   -4.8300   -0.4720 c         1 MOL      0.730637
    155 O22         0.3930   -4.8500   -0.3490 o         1 MOL     -0.726174
    156 O23        -1.3180   -4.3220   -1.4900 o         1 MOL     -0.726174
    157 H67        -4.6210   -3.2890    0.3190 hn        1 MOL      0.170946
    158 H68        -3.6340   -5.0130    2.4530 h1        1 MOL      0.131498
    159 H69        -1.5280   -3.4450    2.0100 hc        1 MOL      0.072989
    160 H70        -2.3840   -3.0850    0.5170 hc        1 MOL      0.072989
    161 H71        -2.5850   -5.8270    0.5200 hc        1 MOL      0.093606
    162 H72        -1.1320   -5.6100    1.5060 hc        1 MOL      0.093606
    163 N14        -4.1750   -2.0340    3.5550 n         1 MOL     -0.078568
    164 C55        -4.2570   -1.1090    4.6900 c3        1 MOL     -0.284462
    165 H73        -3.7360   -1.5380    5.5460 h1        1 MOL      0.103733
    166 H74        -3.7930   -0.1600    4.4200 h1        1 MOL      0.103733
    167 H75        -5.3030   -0.9420    4.9480 h1        1 MOL      0.103733
    168 H76        -4.5440   -1.7020    2.6760 hn        1 MOL      0.169615
    169 Ca1         0.6540   -2.9860   -2.3670 Ca        1 MOL      1.696857
    170 O24         0.7770   -5.5310   -3.4150 oh        1 MOL     -0.821742
    171 H77         0.5140   -5.5920   -4.3300 ho        1 MOL      0.396765
    172 H78         0.6090   -6.3950   -3.0570 ho        1 MOL      0.396765
    173 O25        -1.0040   -2.5660   -4.5860 oh        1 MOL     -0.821742
    174 H79        -1.9070   -2.8300   -4.7720 ho        1 MOL      0.396765
    175 H80        -0.6580   -2.2770   -5.4330 ho        1 MOL      0.396765
    176 O26         1.8620   -3.1800   -5.0240 oh        1 MOL     -0.821742
    177 H81         2.4920   -3.8930   -5.0650 ho        1 MOL      0.396765
    178 H82         1.4040   -3.2140   -5.8660 ho        1 MOL      0.396765
@<TRIPOS>BOND
     1    1    2 1   
     2    1    4 1   
     3    1    5 1   
     4    1    6 1   
     5    2    3 2   
     6    2    7 1   
     7    7    8 1   
     8    7   15 1   
     9    8    9 1   
    10    8   11 1   
    11    8   16 1   
    12    9   10 2   
    13    9   19 1   
    14   11   12 1   
    15   11   17 1   
    16   11   18 1   
    17   12   13 1   
    18   12   14 1   
    19   19   20 1   
    20   19   24 1   
    21   20   21 1   
    22   20   23 1   
    23   20   25 1   
    24   21   22 2   
    25   21   29 1   
    26   23   26 1   
    27   23   27 1   
    28   23   28 1   
    29   29   30 1   
    30   29   37 1   
    31   30   31 1   
    32   30   33 1   
    33   30   38 1   
    34   31   32 2   
    35   31   41 1   
    36   33   34 1   
    37   33   39 1   
    38   33   40 1   
    39   34   35 1   
    40   34   36 1   
    41   41   42 1   
    42   41   45 1   
    43   42   43 1   
    44   42   46 1   
    45   42   47 1   
    46   43   44 2   
    47   43   48 1   
    48   48   49 1   
    49   48   56 1   
    50   49   50 1   
    51   49   52 1   
    52   49   57 1   
    53   50   51 2   
    54   50   62 1   
    55   52   53 1   
    56   52   58 1   
    57   52   59 1   
    58   53   54 1   
    59   53   55 2   
    60   54   60 1   
    61   54   61 1   
    62   62   63 1   
    63   62   66 1   
    64   63   64 1   
    65   63   67 1   
    66   63   68 1   
    67   64   65 2   
    68   64   69 1   
    69   69   70 1   
    70   69   76 1   
    71   70   71 1   
    72   70   73 1   
    73   70   77 1   
    74   71   72 2   
    75   71   83 1   
    76   73   74 1   
    77   73   75 1   
    78   73   78 1   
    79   74   80 1   
    80   74   81 1   
    81   74   82 1   
    82   75   79 1   
    83   83   84 1   
    84   83   91 1   
    85   84   85 1   
    86   84   87 1   
    87   84   92 1   
    88   85   86 2   
    89   85  102 1   
    90   87   88 1   
    91   87   89 1   
    92   87   93 1   
    93   88   90 1   
    94   88   94 1   
    95   88   95 1   
    96   89   96 1   
    97   89   97 1   
    98   89   98 1   
    99   90   99 1   
   100   90  100 1   
   101   90  101 1   
   102  102  103 1   
   103  102  110 1   
   104  103  104 1   
   105  103  106 1   
   106  103  111 1   
   107  104  105 2   
   108  104  114 1   
   109  106  107 1   
   110  106  112 1   
   111  106  113 1   
   112  107  108 1   
   113  107  109 1   
   114  114  115 1   
   115  114  125 1   
   116  115  116 1   
   117  115  118 1   
   118  115  126 1   
   119  116  117 2   
   120  116  134 1   
   121  118  119 1   
   122  118  127 1   
   123  118  128 1   
   124  119  120 ar  
   125  119  121 ar  
   126  120  122 ar  
   127  120  129 1   
   128  121  123 ar  
   129  121  130 1   
   130  122  124 ar  
   131  122  131 1   
   132  123  124 ar  
   133  123  132 1   
   134  124  133 1   
   135  134  135 1   
   136  134  140 1   
   137  135  136 1   
   138  135  138 1   
   139  135  141 1   
   140  136  137 2   
   141  136  148 1   
   142  138  139 1   
   143  138  142 1   
   144  138  143 1   
   145  139  140 1   
   146  139  144 1   
   147  139  145 1   
   148  140  146 1   
   149  140  147 1   
   150  148  149 1   
   151  148  157 1   
   152  149  150 1   
   153  149  152 1   
   154  149  158 1   
   155  150  151 2   
   156  150  163 1   
   157  152  153 1   
   158  152  159 1   
   159  152  160 1   
   160  153  154 1   
   161  153  161 1   
   162  153  162 1   
   163  154  155 1   
   164  154  156 1   
   165  163  164 1   
   166  163  168 1   
   167  164  165 1   
   168  164  166 1   
   169  164  167 1   
   170  170  171 1   
   171  170  172 1   
   172  173  174 1   
   173  173  175 1   
   174  176  177 1   
   175  176  178 1   
@<TRIPOS>SUBSTRUCTURE
     1 MOL         1 TEMP              0 ****  ****    0 ROOT
