@<TRIPOS>MOLECULE
MOL
  201   193     1     0     0
SMALL
resp


@<TRIPOS>ATOM
      1 C1         -4.2380    5.6670    0.7440 c3        1 MOL     -0.371445
      2 C2         -5.1710    4.7520    1.6370 c         1 MOL      0.717964
      3 O1         -4.8830    4.4670    2.7870 o         1 MOL     -0.594102
      4 H1         -4.3170    6.7020    1.0780 hc        1 MOL      0.093128
      5 H2         -3.2050    5.3340    0.8380 hc        1 MOL      0.093128
      6 H3         -4.5490    5.5980   -0.2970 hc        1 MOL      0.093128
      7 N1         -6.3650    4.4710    1.1170 n         1 MOL     -0.661876
      8 C3         -7.2030    3.3960    1.6200 c3        1 MOL      0.423625
      9 C4         -6.5080    2.0970    1.1170 c         1 MOL      0.361662
     10 O2         -5.6740    2.1230    0.1320 o         1 MOL     -0.476631
     11 C5         -8.6880    3.4320    1.1750 c3        1 MOL     -0.411509
     12 C6         -8.9350    2.9630   -0.2120 c         1 MOL      1.010222
     13 O3         -9.1230    1.7760   -0.3760 o         1 MOL     -0.870894
     14 O4         -8.7250    3.6250   -1.2300 o         1 MOL     -0.870894
     15 H4         -6.6070    4.9350    0.2610 hn        1 MOL      0.349111
     16 H5         -7.1910    3.4510    2.7100 h1        1 MOL      0.020319
     17 H6         -8.9970    4.4760    1.1560 hc        1 MOL      0.083071
     18 H7         -9.2200    2.7880    1.8760 hc        1 MOL      0.083071
     19 N2         -6.7950    1.0290    1.8800 n         1 MOL     -0.577050
     20 C7         -6.2180   -0.2800    1.5190 c3        1 MOL      0.354125
     21 C8         -7.2140   -1.3810    1.1400 c         1 MOL      0.245656
     22 O5         -7.0040   -2.5960    1.3680 o         1 MOL     -0.524878
     23 C9         -5.2270   -0.6750    2.5530 c3        1 MOL     -0.266415
     24 C10        -5.7500   -1.0640    3.9560 c3        1 MOL     -0.126009
     25 C11        -4.5460   -1.2880    4.9280 c3        1 MOL     -0.202904
     26 C12        -5.1980   -1.6660    6.2440 c3        1 MOL      0.062950
     27 N3         -4.1720   -2.0320    7.1800 n4        1 MOL     -0.248452
     28 H8         -7.2060    1.1420    2.8000 hn        1 MOL      0.318185
     29 H9         -5.6850   -0.2010    0.5680 h1        1 MOL     -0.047961
     30 H10        -4.5500    0.1590    2.7190 hc        1 MOL      0.129795
     31 H11        -4.6530   -1.5540    2.2620 hc        1 MOL      0.129795
     32 H12        -6.3180   -1.9960    3.9810 hc        1 MOL      0.072327
     33 H13        -6.4160   -0.3330    4.4100 hc        1 MOL      0.072327
     34 H14        -3.8920   -0.4190    4.8070 hc        1 MOL      0.120602
     35 H15        -4.0090   -2.1760    4.6100 hc        1 MOL      0.120602
     36 H16        -5.8350   -2.5410    6.1600 hx        1 MOL      0.079995
     37 H17        -5.8310   -0.8430    6.5980 hx        1 MOL      0.079995
     38 H18        -4.5530   -2.0460    8.1150 hn        1 MOL      0.251483
     39 H19        -3.9140   -3.0030    7.0860 hn        1 MOL      0.251483
     40 H20        -3.3320   -1.4610    7.1790 hn        1 MOL      0.251483
     41 N4         -8.3730   -1.0180    0.5970 n         1 MOL     -0.162997
     42 C13        -9.4350   -1.9620    0.2310 c3        1 MOL      0.040320
     43 C14        -9.3830   -2.0980   -1.2790 c         1 MOL      0.660721
     44 O6         -9.4620   -1.0420   -1.9370 o         1 MOL     -0.663741
     45 C15       -10.7940   -1.3780    0.7600 c3        1 MOL     -0.336144
     46 C16       -11.9770   -2.2820    0.6100 c         1 MOL      0.725436
     47 O7        -13.0390   -1.9330    1.1220 o         1 MOL     -0.691987
     48 O8        -11.9240   -3.1990   -0.2130 o         1 MOL     -0.691987
     49 H21        -8.6350   -0.0510    0.5540 hn        1 MOL      0.211672
     50 H22        -9.2000   -2.9280    0.6740 h1        1 MOL      0.110103
     51 H23       -11.0680   -0.3860    0.3820 hc        1 MOL      0.085501
     52 H24       -10.6950   -1.2130    1.8340 hc        1 MOL      0.085501
     53 N5         -9.2110   -3.3160   -1.8320 n         1 MOL     -0.374258
     54 C17        -8.8310   -4.5740   -1.1930 c3        1 MOL     -0.098670
     55 C18        -7.3740   -4.7730   -0.9620 c         1 MOL      0.521752
     56 O9         -7.0140   -5.8360   -0.3830 o         1 MOL     -0.553173
     57 H25        -9.1630   -3.3420   -2.8430 hn        1 MOL      0.294023
     58 H26        -9.0970   -5.3380   -1.9190 h1        1 MOL      0.089136
     59 H27        -9.4550   -4.7450   -0.3160 h1        1 MOL      0.089136
     60 N6         -6.5840   -3.8270   -1.4470 n         1 MOL     -0.208891
     61 C19        -5.1320   -3.7710   -1.2250 c3        1 MOL     -0.044082
     62 C20        -4.5600   -2.3540   -1.0630 c         1 MOL      0.519917
     63 O10        -5.2540   -1.4280   -1.4310 o         1 MOL     -0.506251
     64 C21        -4.4260   -4.5480   -2.3490 c3        1 MOL     -0.226407
     65 C22        -4.8180   -4.0330   -3.7690 c         1 MOL      0.703000
     66 O11        -5.6220   -4.7700   -4.3980 o         1 MOL     -0.672315
     67 O12        -4.3020   -3.0100   -4.2890 o         1 MOL     -0.672315
     68 H28        -7.0010   -3.0000   -1.8670 hn        1 MOL      0.189719
     69 H29        -4.8750   -4.3390   -0.3320 h1        1 MOL      0.066047
     70 H30        -4.7870   -5.5730   -2.3110 hc        1 MOL      0.060526
     71 H31        -3.3530   -4.4420   -2.2190 hc        1 MOL      0.060526
     72 N7         -3.3390   -2.2260   -0.4570 n         1 MOL     -0.394918
     73 C23        -2.7730   -0.9180   -0.0830 c3        1 MOL     -0.142112
     74 C24        -1.6590   -0.8050    0.9190 c         1 MOL      0.694734
     75 O13        -1.3910   -1.7330    1.6270 o         1 MOL     -0.544904
     76 H32        -2.8410   -3.0620   -0.1660 hn        1 MOL      0.292331
     77 H33        -3.5060   -0.1750    0.2080 h1        1 MOL      0.106847
     78 H34        -2.4100   -0.3990   -0.9720 h1        1 MOL      0.106847
     79 N8         -1.0480    0.3550    1.0050 n         1 MOL     -0.626422
     80 C25         0.1100    0.6640    1.9180 c3        1 MOL      0.006361
     81 C26         0.9500    1.7740    1.2590 c         1 MOL      0.508519
     82 O14         0.7880    2.0360    0.0360 o         1 MOL     -0.514115
     83 C27        -0.4290    1.2450    3.2460 c3        1 MOL      0.357456
     84 C28        -1.3540    2.4770    3.0820 c3        1 MOL     -0.622343
     85 O15        -1.1180    0.2370    4.0280 oh        1 MOL     -0.674177
     86 H35        -1.4330    1.1870    0.6040 hn        1 MOL      0.332056
     87 H36         0.5990   -0.2810    2.1770 h1        1 MOL      0.120248
     88 H37         0.3950    1.5690    3.8840 h1        1 MOL     -0.012249
     89 H38        -1.3950    0.6180    4.8580 ho        1 MOL      0.405228
     90 H39        -2.2890    2.1250    2.6360 hc        1 MOL      0.171093
     91 H40        -1.4750    2.9180    4.0740 hc        1 MOL      0.171093
     92 H41        -1.0350    3.1480    2.2920 hc        1 MOL      0.171093
     93 N9          1.8530    2.3750    2.0280 n         1 MOL     -0.183991
     94 C29         2.8750    3.3000    1.4320 c3        1 MOL     -0.149885
     95 C30         3.9800    2.4430    0.7920 c         1 MOL      0.593991
     96 O16         4.6140    2.9760   -0.1220 o         1 MOL     -0.512558
     97 C31         3.4840    4.3300    2.5010 c3        1 MOL      0.114837
     98 C32         2.3850    5.1360    3.2650 c3        1 MOL     -0.323247
     99 C33         4.4790    5.2620    1.8790 c3        1 MOL     -0.239638
    100 C34         1.3950    5.8830    2.4140 c3        1 MOL     -0.052441
    101 H42         1.9780    1.9640    2.9400 hn        1 MOL      0.189331
    102 H43         2.3530    3.8430    0.6370 h1        1 MOL      0.151142
    103 H44         4.0310    3.7140    3.2320 hc        1 MOL      0.013049
    104 H45         2.8780    5.9810    3.7350 hc        1 MOL      0.101508
    105 H46         1.7640    4.5100    3.8940 hc        1 MOL      0.101508
    106 H47         4.9410    5.7550    2.7320 hc        1 MOL      0.080360
    107 H48         5.3420    4.7600    1.4400 hc        1 MOL      0.080360
    108 H49         4.0840    6.0520    1.2520 hc        1 MOL      0.080360
    109 H50         0.9190    5.1960    1.7060 hc        1 MOL      0.035978
    110 H51         0.6740    6.2750    3.1270 hc        1 MOL      0.035978
    111 H52         1.7840    6.7230    1.8520 hc        1 MOL      0.035978
    112 N10         4.2420    1.1690    1.2680 n         1 MOL     -0.409187
    113 C35         5.2580    0.2370    0.7360 c3        1 MOL     -0.008163
    114 C36         6.0780   -0.4750    1.8390 c         1 MOL      0.497767
    115 O17         5.6400   -0.6900    2.9430 o         1 MOL     -0.507795
    116 C37         4.5880   -0.7970   -0.2330 c3        1 MOL      0.266471
    117 C38         3.4710   -1.6460    0.3170 c3        1 MOL     -0.447848
    118 O18         4.0960   -0.0320   -1.2870 oh        1 MOL     -0.579782
    119 H53         3.6740    0.7970    2.0140 hn        1 MOL      0.195115
    120 H54         6.0090    0.7640    0.1470 h1        1 MOL      0.095846
    121 H55         5.3630   -1.4860   -0.5780 h1        1 MOL      0.014880
    122 H56         3.7730   -0.6220   -1.9760 ho        1 MOL      0.406766
    123 H57         2.7150   -0.9520    0.6980 hc        1 MOL      0.137060
    124 H58         3.1870   -2.2460   -0.5400 hc        1 MOL      0.137060
    125 H59         3.7750   -2.2820    1.1450 hc        1 MOL      0.137060
    126 N11         7.2230   -1.0290    1.4790 n         1 MOL     -0.355033
    127 C39         8.1630   -1.7830    2.3210 c3        1 MOL     -0.039888
    128 C40         9.7170   -1.6270    2.1020 c         1 MOL      0.607919
    129 O19        10.3850   -1.4220    3.0500 o         1 MOL     -0.532225
    130 C41         7.8860   -3.3190    2.0480 c3        1 MOL      0.316831
    131 C42         7.9420   -3.7760    0.5870 c3        1 MOL     -0.128491
    132 O20         6.6020   -3.6320    2.6540 oh        1 MOL     -0.609548
    133 H60         7.5710   -0.7710    0.5640 hn        1 MOL      0.208950
    134 H61         8.0270   -1.6900    3.4040 h1        1 MOL      0.080090
    135 H62         8.6210   -3.9180    2.5790 h1        1 MOL     -0.017760
    136 H63         6.4680   -2.9230    3.2820 ho        1 MOL      0.376216
    137 H64         7.5830   -4.8010    0.4590 hc        1 MOL      0.044421
    138 H65         7.2400   -3.2380   -0.0520 hc        1 MOL      0.044421
    139 H66         8.9770   -3.6970    0.2520 hc        1 MOL      0.044421
    140 N12        10.1830   -1.4920    0.8300 n         1 MOL     -0.511200
    141 C43        11.5310   -1.1490    0.5000 c3        1 MOL      0.027056
    142 C44        11.4900   -0.6740   -0.9610 c         1 MOL      0.632525
    143 O21        10.8440   -1.3780   -1.7360 o         1 MOL     -0.568572
    144 C45        12.4040   -2.4450    0.5250 c3        1 MOL     -0.334201
    145 C46        13.9290   -2.1370    0.7510 c3        1 MOL      0.292635
    146 C47        14.8390   -3.2300    0.3110 c3        1 MOL     -0.131218
    147 C48        16.3020   -2.8490    0.7240 c3        1 MOL      0.112287
    148 N13        17.1790   -4.0700    0.8230 n4        1 MOL     -0.391617
    149 H67         9.6160   -1.7440    0.0310 hn        1 MOL      0.291709
    150 H68        12.0120   -0.3720    1.0970 h1        1 MOL      0.087827
    151 H69        12.3420   -3.0140   -0.4000 hc        1 MOL      0.103389
    152 H70        12.0930   -3.1090    1.3320 hc        1 MOL      0.103389
    153 H71        14.1660   -1.8940    1.7880 hc        1 MOL     -0.056190
    154 H72        14.1080   -1.1690    0.2680 hc        1 MOL     -0.056190
    155 H73        14.6840   -3.3790   -0.7560 hc        1 MOL      0.053879
    156 H74        14.5920   -4.1510    0.8530 hc        1 MOL      0.053879
    157 H75        16.3440   -2.2740    1.6560 hx        1 MOL      0.075533
    158 H76        16.7160   -2.2080   -0.0500 hx        1 MOL      0.075533
    159 H77        17.2840   -4.4950   -0.0860 hn        1 MOL      0.294893
    160 H78        18.1520   -3.8600    1.0150 hn        1 MOL      0.294893
    161 H79        16.7970   -4.7030    1.5080 hn        1 MOL      0.294893
    162 N14        12.1470    0.3600   -1.2810 n         1 MOL     -0.535552
    163 C49        12.5540    0.7630   -2.6590 c3        1 MOL      0.160377
    164 C50        11.5940    1.7910   -3.2990 c         1 MOL      0.369195
    165 O22        11.2780    1.6320   -4.4990 o         1 MOL     -0.503191
    166 C51        13.9810    1.3540   -2.7170 c3        1 MOL      0.100710
    167 C52        14.4350    1.4480   -4.1310 c3        1 MOL     -0.338725
    168 C53        15.9960    1.6420   -4.1330 c         1 MOL      0.724964
    169 O23        16.4630    2.7750   -3.8520 o         1 MOL     -0.700827
    170 O24        16.7060    0.6460   -4.2500 o         1 MOL     -0.700827
    171 H80        12.4820    0.8670   -0.4680 hn        1 MOL      0.269701
    172 H81        12.5950   -0.1440   -3.2680 h1        1 MOL      0.087131
    173 H82        14.6290    0.7100   -2.1270 hc        1 MOL      0.001808
    174 H83        14.0630    2.3060   -2.2070 hc        1 MOL      0.001808
    175 H84        13.8850    2.2780   -4.5840 hc        1 MOL      0.078468
    176 H85        14.1900    0.5720   -4.7260 hc        1 MOL      0.078468
    177 N15        10.9920    2.7880   -2.5730 n         1 MOL     -0.319102
    178 C54        11.4650    3.4320   -1.3280 c3        1 MOL     -0.097802
    179 H86        10.8480    4.3050   -1.1140 h1        1 MOL      0.073090
    180 H87        11.3920    2.7250   -0.5020 h1        1 MOL      0.073090
    181 H88        12.5020    3.7440   -1.4510 h1        1 MOL      0.073090
    182 H89        10.2490    3.2630   -3.0730 hn        1 MOL      0.282778
    183 Ca1        -9.2150    1.6720   -2.9380 Ca        1 MOL      1.750963
    184 O25        -9.9220    2.6580   -5.3490 oh        1 MOL     -0.771872
    185 H90       -10.3640    2.6900   -6.2050 ho        1 MOL      0.390633
    186 H91        -9.3770    3.4410   -5.3370 ho        1 MOL      0.390633
    187 O26        -7.2200    2.9140   -4.1630 oh        1 MOL     -0.771872
    188 H92        -7.3610    3.5200   -4.8900 ho        1 MOL      0.390633
    189 H93        -6.2830    2.7420   -4.1850 ho        1 MOL      0.390633
    190 O27       -11.6120    2.7390   -2.2820 oh        1 MOL     -0.771872
    191 H94       -12.2760    2.5650   -1.6080 ho        1 MOL      0.390633
    192 H95       -11.7560    3.6450   -2.5310 ho        1 MOL      0.390633
    193 O28        -8.5250    0.1770   -4.9930 oh        1 MOL     -0.771872
    194 H96        -8.5030    0.6680   -5.8190 ho        1 MOL      0.390633
    195 H97        -7.6610   -0.2340   -4.9300 ho        1 MOL      0.390633
    196 O29       -11.3100    0.1250   -3.8010 oh        1 MOL     -0.771872
    197 H98       -11.7170   -0.6450   -3.4000 ho        1 MOL      0.390633
    198 H99       -12.0340    0.7450   -3.8980 ho        1 MOL      0.390633
    199 O30        -6.8150    0.6810   -2.2150 oh        1 MOL     -0.771872
    200 H100       -6.2460    1.1450   -1.6000 ho        1 MOL      0.390633
    201 H101       -6.5580   -0.2360   -2.1440 ho        1 MOL      0.390633
@<TRIPOS>BOND
     1    1    2 1   
     2    1    4 1   
     3    1    5 1   
     4    1    6 1   
     5    2    3 2   
     6    2    7 1   
     7    7    8 1   
     8    7   15 1   
     9    8    9 1   
    10    8   11 1   
    11    8   16 1   
    12    9   10 2   
    13    9   19 1   
    14   11   12 1   
    15   11   17 1   
    16   11   18 1   
    17   12   13 1   
    18   12   14 1   
    19   19   20 1   
    20   19   28 1   
    21   20   21 1   
    22   20   23 1   
    23   20   29 1   
    24   21   22 2   
    25   21   41 1   
    26   23   24 1   
    27   23   30 1   
    28   23   31 1   
    29   24   25 1   
    30   24   32 1   
    31   24   33 1   
    32   25   26 1   
    33   25   34 1   
    34   25   35 1   
    35   26   27 1   
    36   26   36 1   
    37   26   37 1   
    38   27   38 1   
    39   27   39 1   
    40   27   40 1   
    41   41   42 1   
    42   41   49 1   
    43   42   43 1   
    44   42   45 1   
    45   42   50 1   
    46   43   44 2   
    47   43   53 1   
    48   45   46 1   
    49   45   51 1   
    50   45   52 1   
    51   46   47 1   
    52   46   48 1   
    53   53   54 1   
    54   53   57 1   
    55   54   55 1   
    56   54   58 1   
    57   54   59 1   
    58   55   56 2   
    59   55   60 1   
    60   60   61 1   
    61   60   68 1   
    62   61   62 1   
    63   61   64 1   
    64   61   69 1   
    65   62   63 2   
    66   62   72 1   
    67   64   65 1   
    68   64   70 1   
    69   64   71 1   
    70   65   66 1   
    71   65   67 1   
    72   72   73 1   
    73   72   76 1   
    74   73   74 1   
    75   73   77 1   
    76   73   78 1   
    77   74   75 2   
    78   74   79 1   
    79   79   80 1   
    80   79   86 1   
    81   80   81 1   
    82   80   83 1   
    83   80   87 1   
    84   81   82 2   
    85   81   93 1   
    86   83   84 1   
    87   83   85 1   
    88   83   88 1   
    89   84   90 1   
    90   84   91 1   
    91   84   92 1   
    92   85   89 1   
    93   93   94 1   
    94   93  101 1   
    95   94   95 1   
    96   94   97 1   
    97   94  102 1   
    98   95   96 2   
    99   95  112 1   
   100   97   98 1   
   101   97   99 1   
   102   97  103 1   
   103   98  100 1   
   104   98  104 1   
   105   98  105 1   
   106   99  106 1   
   107   99  107 1   
   108   99  108 1   
   109  100  109 1   
   110  100  110 1   
   111  100  111 1   
   112  112  113 1   
   113  112  119 1   
   114  113  114 1   
   115  113  116 1   
   116  113  120 1   
   117  114  115 2   
   118  114  126 1   
   119  116  117 1   
   120  116  118 1   
   121  116  121 1   
   122  117  123 1   
   123  117  124 1   
   124  117  125 1   
   125  118  122 1   
   126  126  127 1   
   127  126  133 1   
   128  127  128 1   
   129  127  130 1   
   130  127  134 1   
   131  128  129 2   
   132  128  140 1   
   133  130  131 1   
   134  130  132 1   
   135  130  135 1   
   136  131  137 1   
   137  131  138 1   
   138  131  139 1   
   139  132  136 1   
   140  140  141 1   
   141  140  149 1   
   142  141  142 1   
   143  141  144 1   
   144  141  150 1   
   145  142  143 2   
   146  142  162 1   
   147  144  145 1   
   148  144  151 1   
   149  144  152 1   
   150  145  146 1   
   151  145  153 1   
   152  145  154 1   
   153  146  147 1   
   154  146  155 1   
   155  146  156 1   
   156  147  148 1   
   157  147  157 1   
   158  147  158 1   
   159  148  159 1   
   160  148  160 1   
   161  148  161 1   
   162  162  163 1   
   163  162  171 1   
   164  163  164 1   
   165  163  166 1   
   166  163  172 1   
   167  164  165 2   
   168  164  177 1   
   169  166  167 1   
   170  166  173 1   
   171  166  174 1   
   172  167  168 1   
   173  167  175 1   
   174  167  176 1   
   175  168  169 1   
   176  168  170 1   
   177  177  178 1   
   178  177  182 1   
   179  178  179 1   
   180  178  180 1   
   181  178  181 1   
   182  184  185 1   
   183  184  186 1   
   184  187  188 1   
   185  187  189 1   
   186  190  191 1   
   187  190  192 1   
   188  193  194 1   
   189  193  195 1   
   190  196  197 1   
   191  196  198 1   
   192  199  200 1   
   193  199  201 1   
@<TRIPOS>SUBSTRUCTURE
     1 MOL         1 TEMP              0 ****  ****    0 ROOT
