@<TRIPOS>MOLECULE
MOL
  181   177     1     0     0
SMALL
resp


@<TRIPOS>ATOM
      1 C1          3.0190   -2.2280    3.9310 c3        1 MOL     -0.424585
      2 C2          4.1720   -1.2400    3.5650 c         1 MOL      0.698563
      3 O1          3.8970   -0.1360    3.1610 o         1 MOL     -0.593657
      4 H1          3.1290   -2.5440    4.9690 hc        1 MOL      0.104804
      5 H2          2.0580   -1.7300    3.8040 hc        1 MOL      0.104804
      6 H3          3.0660   -3.0990    3.2790 hc        1 MOL      0.104804
      7 N1          5.3930   -1.6470    3.8140 n         1 MOL     -0.545651
      8 C3          6.6330   -0.9150    3.3010 c3        1 MOL      0.027439
      9 C4          6.7480   -1.0190    1.7400 c         1 MOL      0.502892
     10 O2          6.2710   -2.0180    1.2200 o         1 MOL     -0.394795
     11 C5          7.8760   -1.5710    3.9530 c3        1 MOL     -0.057904
     12 C6          8.1300   -3.0140    3.6440 c         1 MOL      0.672842
     13 O3          7.3590   -3.9690    3.9530 o         1 MOL     -0.715865
     14 O4          9.2170   -3.1710    3.0390 o         1 MOL     -0.715865
     15 H4          5.4470   -2.5020    4.3500 hn        1 MOL      0.294245
     16 H5          6.7090    0.1250    3.6260 h1        1 MOL      0.060371
     17 H6          7.8380   -1.5340    5.0420 hc        1 MOL     -0.005691
     18 H7          8.7850   -0.9750    3.8520 hc        1 MOL     -0.005691
     19 N2          7.3410   -0.0080    1.0400 n         1 MOL     -0.692878
     20 C7          7.1230    0.0750   -0.4360 c3        1 MOL      0.621625
     21 C8          5.7280    0.6510   -0.8590 c         1 MOL      0.216022
     22 O5          5.0540    1.1850   -0.0270 o         1 MOL     -0.501459
     23 C9          8.3150    0.6250   -1.1880 c3        1 MOL     -0.386698
     24 H8          7.8130    0.7890    1.4500 hn        1 MOL      0.344148
     25 H9          7.1740   -0.9650   -0.7630 h1        1 MOL     -0.039106
     26 H10         8.7380    1.5330   -0.7590 hc        1 MOL      0.081469
     27 H11         9.0330   -0.1900   -1.1870 hc        1 MOL      0.081469
     28 H12         8.0860    0.7450   -2.2510 hc        1 MOL      0.081469
     29 N3          5.3720    0.5750   -2.1020 n         1 MOL     -0.337198
     30 C10         4.0200    0.9120   -2.6380 c3        1 MOL      0.037971
     31 C11         3.8640    2.3830   -3.1120 c         1 MOL      0.540886
     32 O6          3.3820    2.7550   -4.1920 o         1 MOL     -0.512975
     33 C12         3.7010   -0.0270   -3.8160 c3        1 MOL     -0.033294
     34 C13         3.8080   -1.4420   -3.4150 c         1 MOL      0.769702
     35 O7          4.8320   -2.0900   -3.6460 o         1 MOL     -0.791962
     36 O8          2.9840   -1.9500   -2.6950 o         1 MOL     -0.791962
     37 H13         5.9740    0.1190   -2.7770 hn        1 MOL      0.258324
     38 H14         3.2660    0.6790   -1.8860 h1        1 MOL      0.121521
     39 H15         4.3000    0.1330   -4.7090 hc        1 MOL     -0.007680
     40 H16         2.6740    0.1690   -4.1330 hc        1 MOL     -0.007680
     41 N4          4.3380    3.2800   -2.2170 n         1 MOL     -0.594277
     42 C14         4.5780    4.7160   -2.5530 c3        1 MOL     -0.026111
     43 C15         3.3500    5.6350   -2.7110 c         1 MOL      0.371812
     44 O9          3.5520    6.8500   -2.9200 o         1 MOL     -0.522373
     45 H17         4.6930    2.9050   -1.3510 hn        1 MOL      0.366988
     46 H18         5.1120    4.7370   -3.5010 h1        1 MOL      0.102795
     47 H19         5.2020    5.2280   -1.8220 h1        1 MOL      0.102795
     48 N5          2.0810    5.1030   -2.7740 n         1 MOL     -0.043419
     49 C16         0.8640    5.9190   -2.7780 c3        1 MOL     -0.234934
     50 C17         0.4220    6.4700   -1.3890 c         1 MOL      0.524104
     51 O10        -0.2660    7.4750   -1.2160 o         1 MOL     -0.523409
     52 C18        -0.2580    5.0700   -3.4440 c3        1 MOL     -0.171472
     53 C19         0.0380    4.8100   -4.9080 c         1 MOL      0.652338
     54 N6         -0.1440    3.6160   -5.4280 n         1 MOL     -0.808247
     55 O11         0.4410    5.6480   -5.6700 o         1 MOL     -0.544910
     56 H20         2.0470    4.1020   -2.6600 hn        1 MOL      0.176280
     57 H21         1.0440    6.7810   -3.4070 h1        1 MOL      0.148334
     58 H22        -1.1340    5.7320   -3.4480 hc        1 MOL      0.086971
     59 H23        -0.4730    4.1680   -2.8890 hc        1 MOL      0.086971
     60 H24        -0.5290    2.8470   -4.8950 hn        1 MOL      0.374907
     61 H25         0.2300    3.4310   -6.3440 hn        1 MOL      0.374907
     62 N7          0.7490    5.7120   -0.3210 n         1 MOL     -0.231485
     63 C20         0.2630    5.8480    1.1180 c3        1 MOL     -0.421691
     64 C21        -1.1370    5.2070    1.3790 c         1 MOL      0.761152
     65 O12        -1.5480    4.2820    0.7000 o         1 MOL     -0.475560
     66 H26         1.5030    5.0650   -0.4950 hn        1 MOL      0.208680
     67 H27         0.3650    6.9080    1.3090 h1        1 MOL      0.159940
     68 H28         0.9500    5.3010    1.7550 h1        1 MOL      0.159940
     69 N8         -1.8760    5.8840    2.3150 n         1 MOL     -0.370667
     70 C22        -3.2720    5.6650    2.6080 c3        1 MOL     -0.395707
     71 C23        -3.6970    4.2510    2.9380 c         1 MOL      0.588628
     72 O13        -4.8980    3.9800    3.0290 o         1 MOL     -0.563952
     73 C24        -3.9200    6.5310    3.6600 c3        1 MOL      0.572091
     74 C25        -3.7260    6.1470    5.1200 c3        1 MOL     -0.334914
     75 O14        -3.4860    7.8560    3.5700 oh        1 MOL     -0.669567
     76 H29        -1.4530    6.7320    2.6640 hn        1 MOL      0.209416
     77 H30        -3.8080    5.8990    1.6970 h1        1 MOL      0.172097
     78 H31        -4.9970    6.5110    3.5320 h1        1 MOL      0.015295
     79 H32        -2.5290    7.8900    3.6240 ho        1 MOL      0.412640
     80 H33        -2.6680    6.1880    5.3510 hc        1 MOL      0.071830
     81 H34        -4.3000    6.7720    5.8060 hc        1 MOL      0.071830
     82 H35        -4.1130    5.1440    5.3010 hc        1 MOL      0.071830
     83 N9         -2.6820    3.4210    3.1980 n         1 MOL     -0.257192
     84 C26        -2.6770    2.0170    3.5760 c3        1 MOL      0.100084
     85 C27        -2.0010    1.2400    2.4430 c         1 MOL      0.509357
     86 O15        -0.9090    1.5610    2.0520 o         1 MOL     -0.498833
     87 C28        -2.0800    1.7140    4.9280 c3        1 MOL      0.159078
     88 C29        -2.7810    2.2980    6.1620 c3        1 MOL     -0.310365
     89 C30        -2.0880    0.1990    5.1740 c3        1 MOL     -0.180662
     90 C31        -4.3230    2.1550    6.1250 c3        1 MOL     -0.120667
     91 H36        -1.7370    3.7370    3.0150 hn        1 MOL      0.120131
     92 H37        -3.6910    1.6400    3.6850 h1        1 MOL      0.012019
     93 H38        -1.0310    2.0210    5.0070 hc        1 MOL      0.023539
     94 H39        -2.4100    3.3130    6.3040 hc        1 MOL      0.086028
     95 H40        -2.6880    1.7350    7.0920 hc        1 MOL      0.086028
     96 H41        -2.8590   -0.3810    4.6530 hc        1 MOL      0.052663
     97 H42        -1.1830   -0.2830    4.8290 hc        1 MOL      0.052663
     98 H43        -2.1750   -0.0460    6.2370 hc        1 MOL      0.052663
     99 H44        -4.6840    2.3160    7.1390 hc        1 MOL      0.046898
    100 H45        -4.7300    2.9920    5.5490 hc        1 MOL      0.046898
    101 H46        -4.6690    1.1440    5.9040 hc        1 MOL      0.046898
    102 N10        -2.5450    0.1490    1.9060 n         1 MOL     -0.610765
    103 C32        -1.8540   -0.7740    0.9640 c3        1 MOL      0.490688
    104 C33        -2.8540   -1.1860   -0.1810 c         1 MOL      0.280999
    105 O16        -2.5570   -2.1270   -0.8840 o         1 MOL     -0.393328
    106 C34        -1.1530   -1.9410    1.5860 c3        1 MOL     -0.383751
    107 C35         0.1250   -2.4070    0.8730 c         1 MOL      0.880078
    108 O17         0.5570   -1.7640   -0.1080 o         1 MOL     -0.776205
    109 O18         0.7340   -3.4400    1.2230 o         1 MOL     -0.776205
    110 H47        -3.5030   -0.0640    2.1430 hn        1 MOL      0.267915
    111 H48        -1.1570   -0.1300    0.4320 h1        1 MOL      0.035658
    112 H49        -1.7960   -2.7810    1.8330 hc        1 MOL      0.060547
    113 H50        -0.7680   -1.6240    2.5580 hc        1 MOL      0.060547
    114 N11        -3.9520   -0.4550   -0.3800 n         1 MOL     -0.292355
    115 C36        -4.8440   -0.9000   -1.4490 c3        1 MOL      0.183753
    116 C37        -5.5730   -2.2330   -1.1270 c         1 MOL      0.220788
    117 O19        -5.9160   -2.5200    0.0170 o         1 MOL     -0.475277
    118 C38        -5.8170    0.2550   -1.7440 c3        1 MOL     -0.208389
    119 C39        -5.2040    1.6080   -2.0640 ca        1 MOL      0.016766
    120 C40        -4.5410    1.8140   -3.2520 ca        1 MOL     -0.116793
    121 C41        -5.1360    2.6290   -1.0170 ca        1 MOL     -0.116793
    122 C42        -3.9080    3.0360   -3.4800 ca        1 MOL     -0.087152
    123 C43        -4.5150    3.8270   -1.2310 ca        1 MOL     -0.087152
    124 C44        -3.8770    4.0490   -2.4960 ca        1 MOL     -0.134179
    125 H51        -4.1790    0.3000    0.2580 hn        1 MOL      0.223064
    126 H52        -4.2230   -1.0040   -2.3450 h1        1 MOL      0.046294
    127 H53        -6.4120    0.2570   -0.8280 hc        1 MOL      0.078180
    128 H54        -6.5550    0.0180   -2.5100 hc        1 MOL      0.078180
    129 H55        -4.5940    1.1280   -4.0860 ha        1 MOL      0.103349
    130 H56        -5.7220    2.6260   -0.1030 ha        1 MOL      0.103349
    131 H57        -3.5120    3.3460   -4.4360 ha        1 MOL      0.082269
    132 H58        -4.4830    4.5440   -0.4250 ha        1 MOL      0.082269
    133 H59        -3.3660    4.9640   -2.7460 ha        1 MOL      0.117055
    134 N12        -5.8250   -3.0420   -2.2010 n         1 MOL      0.013542
    135 C45        -6.5060   -4.3180   -2.0820 c3        1 MOL      0.048951
    136 C46        -5.7790   -5.3700   -1.2650 c         1 MOL      0.378948
    137 O20        -6.4330   -6.2830   -0.8110 o         1 MOL     -0.523354
    138 C47        -6.8440   -4.8210   -3.4320 c3        1 MOL     -0.106386
    139 C48        -5.8880   -4.0960   -4.3370 c3        1 MOL      0.106838
    140 C49        -5.5600   -2.7920   -3.5760 c3        1 MOL     -0.118421
    141 H60        -7.4160   -4.1240   -1.5250 h1        1 MOL      0.056526
    142 H61        -6.7630   -5.8920   -3.5980 hc        1 MOL      0.041222
    143 H62        -7.8910   -4.5370   -3.5130 hc        1 MOL      0.041222
    144 H63        -5.0090   -4.6790   -4.6200 hc        1 MOL     -0.004426
    145 H64        -6.4240   -3.8050   -5.2370 hc        1 MOL     -0.004426
    146 H65        -4.5080   -2.5780   -3.7350 h1        1 MOL      0.050854
    147 H66        -6.1390   -1.9690   -4.0000 h1        1 MOL      0.050854
    148 N13        -4.5070   -5.1550   -0.9700 n         1 MOL     -0.207237
    149 C50        -3.7000   -5.9820   -0.0920 c3        1 MOL     -0.078026
    150 C51        -4.1520   -5.9440    1.3390 c         1 MOL      0.447384
    151 O21        -4.2790   -6.9040    2.0800 o         1 MOL     -0.564402
    152 C52        -2.2610   -5.5350   -0.1170 c3        1 MOL      0.113434
    153 C53        -1.6200   -5.5770   -1.5050 c3        1 MOL     -0.266713
    154 C54        -0.1390   -5.1010   -1.3620 c         1 MOL      0.765364
    155 O22         0.1530   -4.0930   -2.0370 o         1 MOL     -0.762001
    156 O23         0.8390   -5.8120   -0.9540 o         1 MOL     -0.762001
    157 H67        -4.0500   -4.3000   -1.2780 hn        1 MOL      0.163984
    158 H68        -3.5870   -7.0390   -0.3330 h1        1 MOL      0.092385
    159 H69        -1.6340   -6.1660    0.5200 hc        1 MOL     -0.005696
    160 H70        -2.1880   -4.5210    0.2880 hc        1 MOL     -0.005696
    161 H71        -2.1070   -4.9410   -2.2320 hc        1 MOL      0.059803
    162 H72        -1.6120   -6.6000   -1.8800 hc        1 MOL      0.059803
    163 N14        -4.5660   -4.7750    1.7760 n         1 MOL     -0.111435
    164 C55        -5.0010   -4.3890    3.1490 c3        1 MOL     -0.200459
    165 H73        -5.0420   -5.2770    3.7800 h1        1 MOL      0.082986
    166 H74        -4.2880   -3.6790    3.5700 h1        1 MOL      0.082986
    167 H75        -5.9880   -3.9290    3.1030 h1        1 MOL      0.082986
    168 H76        -4.5100   -4.0030    1.1280 hn        1 MOL      0.178722
    169 Ca1         2.3940   -3.7670   -0.8180 Ca        1 MOL      1.825585
    170 O24         3.6450   -1.9560    0.6780 oh        1 MOL     -0.860138
    171 H77         3.4310   -1.0620    0.9440 ho        1 MOL      0.420196
    172 H78         4.6010   -1.9470    0.5820 ho        1 MOL      0.420196
    173 O25         5.0910   -3.7770   -1.0930 oh        1 MOL     -0.860138
    174 H79         5.1680   -3.7800   -2.0500 ho        1 MOL      0.420196
    175 H80         5.8940   -3.3470   -0.7970 ho        1 MOL      0.420196
    176 O26         3.2460   -5.3290    1.1700 oh        1 MOL     -0.860138
    177 H81         2.8280   -5.9970    1.7190 ho        1 MOL      0.420196
    178 H82         4.0830   -5.1560    1.5920 ho        1 MOL      0.420196
    179 O27         3.1900   -4.8560   -3.2230 oh        1 MOL     -0.860138
    180 H83         2.9150   -5.5120   -3.8700 ho        1 MOL      0.420196
    181 H84         3.2470   -4.0380   -3.7300 ho        1 MOL      0.420196
@<TRIPOS>BOND
     1    1    2 1   
     2    1    4 1   
     3    1    5 1   
     4    1    6 1   
     5    2    3 2   
     6    2    7 1   
     7    7    8 1   
     8    7   15 1   
     9    8    9 1   
    10    8   11 1   
    11    8   16 1   
    12    9   10 2   
    13    9   19 1   
    14   11   12 1   
    15   11   17 1   
    16   11   18 1   
    17   12   13 1   
    18   12   14 1   
    19   19   20 1   
    20   19   24 1   
    21   20   21 1   
    22   20   23 1   
    23   20   25 1   
    24   21   22 2   
    25   21   29 1   
    26   23   26 1   
    27   23   27 1   
    28   23   28 1   
    29   29   30 1   
    30   29   37 1   
    31   30   31 1   
    32   30   33 1   
    33   30   38 1   
    34   31   32 2   
    35   31   41 1   
    36   33   34 1   
    37   33   39 1   
    38   33   40 1   
    39   34   35 1   
    40   34   36 1   
    41   41   42 1   
    42   41   45 1   
    43   42   43 1   
    44   42   46 1   
    45   42   47 1   
    46   43   44 2   
    47   43   48 1   
    48   48   49 1   
    49   48   56 1   
    50   49   50 1   
    51   49   52 1   
    52   49   57 1   
    53   50   51 2   
    54   50   62 1   
    55   52   53 1   
    56   52   58 1   
    57   52   59 1   
    58   53   54 1   
    59   53   55 2   
    60   54   60 1   
    61   54   61 1   
    62   62   63 1   
    63   62   66 1   
    64   63   64 1   
    65   63   67 1   
    66   63   68 1   
    67   64   65 2   
    68   64   69 1   
    69   69   70 1   
    70   69   76 1   
    71   70   71 1   
    72   70   73 1   
    73   70   77 1   
    74   71   72 2   
    75   71   83 1   
    76   73   74 1   
    77   73   75 1   
    78   73   78 1   
    79   74   80 1   
    80   74   81 1   
    81   74   82 1   
    82   75   79 1   
    83   83   84 1   
    84   83   91 1   
    85   84   85 1   
    86   84   87 1   
    87   84   92 1   
    88   85   86 2   
    89   85  102 1   
    90   87   88 1   
    91   87   89 1   
    92   87   93 1   
    93   88   90 1   
    94   88   94 1   
    95   88   95 1   
    96   89   96 1   
    97   89   97 1   
    98   89   98 1   
    99   90   99 1   
   100   90  100 1   
   101   90  101 1   
   102  102  103 1   
   103  102  110 1   
   104  103  104 1   
   105  103  106 1   
   106  103  111 1   
   107  104  105 2   
   108  104  114 1   
   109  106  107 1   
   110  106  112 1   
   111  106  113 1   
   112  107  108 1   
   113  107  109 1   
   114  114  115 1   
   115  114  125 1   
   116  115  116 1   
   117  115  118 1   
   118  115  126 1   
   119  116  117 2   
   120  116  134 1   
   121  118  119 1   
   122  118  127 1   
   123  118  128 1   
   124  119  120 ar  
   125  119  121 ar  
   126  120  122 ar  
   127  120  129 1   
   128  121  123 ar  
   129  121  130 1   
   130  122  124 ar  
   131  122  131 1   
   132  123  124 ar  
   133  123  132 1   
   134  124  133 1   
   135  134  135 1   
   136  134  140 1   
   137  135  136 1   
   138  135  138 1   
   139  135  141 1   
   140  136  137 2   
   141  136  148 1   
   142  138  139 1   
   143  138  142 1   
   144  138  143 1   
   145  139  140 1   
   146  139  144 1   
   147  139  145 1   
   148  140  146 1   
   149  140  147 1   
   150  148  149 1   
   151  148  157 1   
   152  149  150 1   
   153  149  152 1   
   154  149  158 1   
   155  150  151 2   
   156  150  163 1   
   157  152  153 1   
   158  152  159 1   
   159  152  160 1   
   160  153  154 1   
   161  153  161 1   
   162  153  162 1   
   163  154  155 1   
   164  154  156 1   
   165  163  164 1   
   166  163  168 1   
   167  164  165 1   
   168  164  166 1   
   169  164  167 1   
   170  170  171 1   
   171  170  172 1   
   172  173  174 1   
   173  173  175 1   
   174  176  177 1   
   175  176  178 1   
   176  179  180 1   
   177  179  181 1   
@<TRIPOS>SUBSTRUCTURE
     1 MOL         1 TEMP              0 ****  ****    0 ROOT
