@<TRIPOS>MOLECULE
MOL
  195   189     1     0     0
SMALL
resp


@<TRIPOS>ATOM
      1 C1          6.6270    1.5070    5.4050 c3        1 MOL     -0.076594
      2 C2          5.7910    1.1850    4.1640 c         1 MOL      0.834974
      3 O1          5.2090    2.1320    3.5870 o         1 MOL     -0.673648
      4 H1          5.9690    1.6100    6.2680 hc        1 MOL      0.013213
      5 H2          7.3370    0.7010    5.5840 hc        1 MOL      0.013213
      6 H3          7.1680    2.4400    5.2480 hc        1 MOL      0.013213
      7 N1          5.5000   -0.0270    3.7520 n         1 MOL     -0.748955
      8 C3          4.9580   -0.3620    2.3950 c3        1 MOL      0.513344
      9 C4          3.4420   -0.1920    2.2540 c         1 MOL      0.042754
     10 O2          2.8930   -0.5950    1.1780 o         1 MOL     -0.203312
     11 C5          5.3210   -1.8720    2.1270 c3        1 MOL     -0.203613
     12 C6          6.7660   -2.2260    2.4690 c         1 MOL      0.685171
     13 O3          7.1880   -2.2710    3.6660 o         1 MOL     -0.697561
     14 O4          7.4620   -2.6140    1.4790 o         1 MOL     -0.697561
     15 H4          6.0040   -0.7390    4.2620 hn        1 MOL      0.291174
     16 H5          5.3580    0.2560    1.5940 h1        1 MOL     -0.038661
     17 H6          5.1240   -2.0030    1.0610 hc        1 MOL      0.008484
     18 H7          4.6510   -2.4820    2.7260 hc        1 MOL      0.008484
     19 N2          2.8060    0.4580    3.2190 n         1 MOL     -0.218952
     20 C7          1.3020    0.7090    2.9660 c3        1 MOL      0.192169
     21 C8          1.0700    2.1010    2.3850 c         1 MOL      0.235858
     22 O5          1.6390    3.0910    2.8140 o         1 MOL     -0.431178
     23 C9          0.5650    0.2420    4.2300 c3        1 MOL     -0.202246
     24 C10         0.5870   -1.2180    4.4680 c3        1 MOL      0.133681
     25 C11        -0.6270   -1.6570    5.3020 c3        1 MOL     -0.128917
     26 C12        -0.3400   -3.0290    5.8400 c3        1 MOL      0.344426
     27 N3         -1.4350   -3.5530    6.6220 n4        1 MOL     -0.511518
     28 H8          3.3000    0.9580    3.9360 hn        1 MOL      0.257461
     29 H9          0.9900    0.0700    2.1400 h1        1 MOL      0.018668
     30 H10        -0.4230    0.6550    4.0310 hc        1 MOL      0.048371
     31 H11         0.9770    0.7980    5.0810 hc        1 MOL      0.048371
     32 H12         1.5760   -1.3920    4.8980 hc        1 MOL     -0.011870
     33 H13         0.5560   -1.5940    3.4510 hc        1 MOL     -0.011870
     34 H14        -1.5540   -1.7000    4.7260 hc        1 MOL      0.047760
     35 H15        -0.7670   -0.9700    6.1280 hc        1 MOL      0.047760
     36 H16         0.4880   -2.9400    6.5520 hx        1 MOL     -0.012829
     37 H17        -0.0280   -3.7200    5.0600 hx        1 MOL     -0.012829
     38 H18        -2.2240   -3.6360    5.9990 hn        1 MOL      0.360267
     39 H19        -1.1850   -4.4450    7.0030 hn        1 MOL      0.360267
     40 H20        -1.5870   -3.0000    7.4490 hn        1 MOL      0.360267
     41 N4          0.1270    2.2350    1.3680 n         1 MOL     -0.027574
     42 C13        -0.6770    1.2390    0.6240 c3        1 MOL      0.003065
     43 C14        -1.4110    0.0940    1.4550 c         1 MOL      0.438216
     44 O6         -1.1930   -1.1030    1.3290 o         1 MOL     -0.474270
     45 C15         0.0620    0.7890   -0.5890 c3        1 MOL     -0.356207
     46 C16         0.3470    1.8650   -1.6600 c         1 MOL      0.686634
     47 O7          0.0200    3.0430   -1.5740 o         1 MOL     -0.684365
     48 O8          0.7880    1.4890   -2.8030 o         1 MOL     -0.684365
     49 H21        -0.0570    3.2160    1.1660 hn        1 MOL      0.085278
     50 H22        -1.5070    1.8010    0.1730 h1        1 MOL     -0.066802
     51 H23        -0.6830    0.1210   -1.0310 hc        1 MOL      0.140499
     52 H24         0.9880    0.2490   -0.3710 hc        1 MOL      0.140499
     53 N5         -2.4810    0.3830    2.1700 n         1 MOL     -0.537981
     54 C17        -3.2340    1.6690    2.1810 c3        1 MOL      0.175497
     55 C18        -4.4810    1.8150    3.1170 c         1 MOL      0.492340
     56 O9         -4.5400    1.1950    4.1810 o         1 MOL     -0.552739
     57 H25        -2.8240   -0.4790    2.5820 hn        1 MOL      0.338428
     58 H26        -3.6210    1.8160    1.1700 h1        1 MOL      0.083097
     59 H27        -2.5100    2.4580    2.4220 h1        1 MOL      0.083097
     60 N6         -5.4050    2.7570    2.7710 n         1 MOL     -0.489258
     61 C19        -5.4070    3.6460    1.6710 c3        1 MOL      0.176004
     62 C20        -6.2890    3.0910    0.5590 c         1 MOL      0.450282
     63 O10        -6.8220    2.0120    0.7490 o         1 MOL     -0.442400
     64 C21        -5.8490    4.9920    2.1730 c3        1 MOL     -0.145267
     65 C22        -7.0750    5.1390    3.0900 c         1 MOL      0.716005
     66 O11        -7.7290    4.1370    3.3830 o         1 MOL     -0.674162
     67 O12        -7.3110    6.2630    3.5800 o         1 MOL     -0.674162
     68 H28        -5.9900    3.1210    3.5090 hn        1 MOL      0.339952
     69 H29        -4.3820    3.7260    1.2920 h1        1 MOL     -0.109489
     70 H30        -5.9910    5.6440    1.3200 hc        1 MOL     -0.013066
     71 H31        -5.0900    5.5030    2.7750 hc        1 MOL     -0.013066
     72 N7         -6.2400    3.6100   -0.6750 n         1 MOL     -0.241639
     73 C23        -6.8530    3.0620   -1.9100 c3        1 MOL     -0.357619
     74 C24        -6.4980    1.6010   -2.3350 c         1 MOL      0.679075
     75 O13        -7.1630    1.1410   -3.2460 o         1 MOL     -0.582105
     76 H32        -5.7160    4.4750   -0.7260 hn        1 MOL      0.223426
     77 H33        -6.6010    3.6840   -2.7620 h1        1 MOL      0.157927
     78 H34        -7.9350    3.0450   -1.7430 h1        1 MOL      0.157927
     79 N8         -5.5720    0.8420   -1.7390 n         1 MOL     -0.375048
     80 C25        -5.0570   -0.4280   -2.0890 c3        1 MOL      0.020844
     81 C26        -5.2320   -1.3640   -0.9260 c         1 MOL      0.541990
     82 O14        -4.6530   -1.0670    0.1690 o         1 MOL     -0.490415
     83 C27        -3.6530   -0.3320   -2.6030 c3        1 MOL      0.165542
     84 C28        -3.5320    0.3450   -3.9170 c3        1 MOL     -0.088370
     85 O15        -3.1170   -1.6470   -2.6060 oh        1 MOL     -0.530133
     86 H35        -5.2980    1.1910   -0.8320 hn        1 MOL      0.082389
     87 H36        -5.6480   -0.8240   -2.9220 h1        1 MOL      0.115164
     88 H37        -2.9890    0.1770   -1.8950 h1        1 MOL      0.135484
     89 H38        -2.1620   -1.5560   -2.6120 ho        1 MOL      0.381204
     90 H39        -2.6800    0.0060   -4.5190 hc        1 MOL      0.024813
     91 H40        -4.4900    0.2470   -4.4230 hc        1 MOL      0.024813
     92 H41        -3.2830    1.3840   -3.7250 hc        1 MOL      0.024813
     93 N9         -5.7890   -2.5840   -1.0620 n         1 MOL     -0.283434
     94 C29        -5.7520   -3.8470   -0.1800 c3        1 MOL     -0.451162
     95 C30        -4.2840   -4.4290   -0.1160 c         1 MOL      0.521817
     96 O16        -4.1420   -5.2920    0.7360 o         1 MOL     -0.552809
     97 C31        -6.8050   -4.8720   -0.5960 c3        1 MOL      0.399846
     98 C32        -6.6860   -5.4660   -1.9940 c3        1 MOL     -0.121728
     99 C33        -8.1530   -4.1380   -0.5030 c3        1 MOL     -0.298108
    100 C34        -7.7280   -6.6080   -2.1550 c3        1 MOL     -0.033884
    101 H42        -6.3670   -2.6540   -1.8840 hn        1 MOL      0.207550
    102 H43        -5.8610   -3.6580    0.8820 h1        1 MOL      0.206364
    103 H44        -6.9340   -5.6070    0.1980 hc        1 MOL      0.007174
    104 H45        -5.7450   -6.0140   -2.0720 hc        1 MOL      0.037701
    105 H46        -6.8610   -4.7090   -2.7480 hc        1 MOL      0.037701
    106 H47        -8.9180   -4.9050   -0.5200 hc        1 MOL      0.072361
    107 H48        -8.2390   -3.5470    0.4130 hc        1 MOL      0.072361
    108 H49        -8.3300   -3.4870   -1.3630 hc        1 MOL      0.072361
    109 H50        -8.7630   -6.2640   -2.1530 hc        1 MOL      0.006391
    110 H51        -7.6100   -7.1400   -3.0960 hc        1 MOL      0.006391
    111 H52        -7.6250   -7.2740   -1.3050 hc        1 MOL      0.006391
    112 N10        -3.3130   -4.0560   -0.9520 n         1 MOL     -0.195099
    113 C35        -1.9850   -4.7890   -1.0050 c3        1 MOL      0.044544
    114 C36        -0.7260   -3.9250   -0.9850 c         1 MOL      0.544642
    115 O17        -0.8200   -2.8070   -1.5090 o         1 MOL     -0.513820
    116 C37        -1.8870   -5.7930   -2.1340 c3        1 MOL      0.286190
    117 C38        -2.1370   -5.3190   -3.6180 c3        1 MOL     -0.331168
    118 O18        -2.7690   -6.8510   -1.8810 oh        1 MOL     -0.628280
    119 H53        -3.3830   -3.2590   -1.5740 hn        1 MOL      0.111947
    120 H54        -1.9710   -5.3150   -0.0550 h1        1 MOL      0.063116
    121 H55        -0.8870   -6.2080   -2.0830 h1        1 MOL     -0.004857
    122 H56        -2.8730   -7.3850   -2.6770 ho        1 MOL      0.402820
    123 H57        -1.5080   -4.4590   -3.8510 hc        1 MOL      0.087206
    124 H58        -1.8840   -6.1820   -4.2480 hc        1 MOL      0.087206
    125 H59        -3.1720   -4.9790   -3.6600 hc        1 MOL      0.087206
    126 N11         0.3330   -4.3290   -0.2930 n         1 MOL     -0.505480
    127 C39         1.4230   -3.4740    0.0280 c3        1 MOL      0.045156
    128 C40         2.2630   -3.1800   -1.1260 c         1 MOL      0.431100
    129 O19         2.3700   -4.0170   -2.0520 o         1 MOL     -0.553770
    130 C41         2.1890   -3.9370    1.2980 c3        1 MOL      0.198898
    131 C42         2.9420   -5.1370    1.0760 c3        1 MOL     -0.440139
    132 O20         1.3180   -4.0910    2.4010 oh        1 MOL     -0.577141
    133 H60         0.4120   -5.3280   -0.2130 hn        1 MOL      0.313312
    134 H61         1.0160   -2.5320    0.3870 h1        1 MOL      0.173048
    135 H62         2.8980   -3.1830    1.6600 h1        1 MOL      0.090800
    136 H63         1.8250   -4.3310    3.1900 ho        1 MOL      0.364030
    137 H64         2.3040   -5.9880    0.8440 hc        1 MOL      0.124884
    138 H65         3.5830   -5.0740    0.1980 hc        1 MOL      0.124884
    139 H66         3.5740   -5.3800    1.9210 hc        1 MOL      0.124884
    140 N12         2.9420   -2.0150   -1.1980 n         1 MOL      0.023714
    141 C43         3.8320   -1.6240   -2.3220 c3        1 MOL     -0.325219
    142 C44         4.2360   -0.1720   -2.3060 c         1 MOL      0.664024
    143 O21         4.7800    0.3000   -3.3060 o         1 MOL     -0.649106
    144 C45         5.1330   -2.4290   -2.2360 c3        1 MOL     -0.038737
    145 C46         5.8040   -2.3860   -3.5980 c3        1 MOL      0.311327
    146 C47         6.8750   -3.4760   -3.8470 c3        1 MOL     -0.329503
    147 C48         8.1330   -3.0610   -3.0650 c3        1 MOL      0.125223
    148 N13         9.1130   -4.0910   -2.9720 n4        1 MOL     -0.345927
    149 H67         2.8150   -1.2910   -0.5060 hn        1 MOL     -0.201016
    150 H68         3.3210   -1.8590   -3.2590 h1        1 MOL      0.158010
    151 H69         4.8790   -3.4250   -1.8800 hc        1 MOL      0.033126
    152 H70         5.7480   -1.9660   -1.4690 hc        1 MOL      0.033126
    153 H71         6.2960   -1.4350   -3.8110 hc        1 MOL     -0.026069
    154 H72         5.0560   -2.5010   -4.3810 hc        1 MOL     -0.026069
    155 H73         7.0880   -3.3740   -4.9140 hc        1 MOL      0.082005
    156 H74         6.5040   -4.4350   -3.5060 hc        1 MOL      0.082005
    157 H75         7.7670   -2.9410   -2.0540 hx        1 MOL      0.066263
    158 H76         8.5290   -2.1100   -3.4420 hx        1 MOL      0.066263
    159 H77         9.9530   -3.8400   -2.4750 hn        1 MOL      0.323597
    160 H78         8.7790   -4.9710   -2.5950 hn        1 MOL      0.323597
    161 H79         9.3260   -4.2440   -3.9450 hn        1 MOL      0.323597
    162 N14         4.1380    0.5840   -1.1690 n         1 MOL      0.035073
    163 C49         4.4580    1.9760   -1.0600 c3        1 MOL     -0.221780
    164 C50         5.9990    2.0690   -0.9290 c         1 MOL      0.280039
    165 O22         6.5560    1.3980   -0.0420 o         1 MOL     -0.461443
    166 C51         3.6440    2.6320    0.0800 c3        1 MOL      0.552757
    167 C52         3.9300    4.1440    0.2310 c3        1 MOL     -0.902152
    168 C53         3.7980    5.0850   -1.0480 c         1 MOL      0.910753
    169 O23         2.7400    5.7310   -1.2290 o         1 MOL     -0.784015
    170 O24         4.7990    5.2080   -1.8090 o         1 MOL     -0.784015
    171 H80         3.9300    0.1020   -0.3000 hn        1 MOL      0.138366
    172 H81         4.1400    2.3810   -2.0310 h1        1 MOL      0.059627
    173 H82         3.9440    2.1760    1.0160 hc        1 MOL     -0.115321
    174 H83         2.5780    2.4450    0.0170 hc        1 MOL     -0.115321
    175 H84         4.9310    4.2540    0.6360 hc        1 MOL      0.251717
    176 H85         3.2430    4.5210    0.9830 hc        1 MOL      0.251717
    177 N15         6.6960    2.9640   -1.6430 n         1 MOL     -0.267462
    178 C54         8.1870    3.1650   -1.6070 c3        1 MOL      0.113649
    179 H86         8.5490    3.3730   -2.6140 h1        1 MOL      0.011343
    180 H87         8.4260    4.0050   -0.9550 h1        1 MOL      0.011343
    181 H88         8.6660    2.2620   -1.2290 h1        1 MOL      0.011343
    182 H89         6.2250    3.5210   -2.3390 hn        1 MOL      0.362066
    183 Ca1         0.2860    5.6040   -1.8200 Ca        1 MOL      1.597823
    184 O25        -1.3140    4.7110   -3.8770 oh        1 MOL     -0.742633
    185 H90        -0.8600    4.4380   -4.6760 ho        1 MOL      0.377469
    186 H91        -2.2360    4.7440   -4.1190 ho        1 MOL      0.377469
    187 O26         1.3500    7.1180   -3.7310 oh        1 MOL     -0.742633
    188 H92         1.4020    8.0020   -3.3740 ho        1 MOL      0.377469
    189 H93         2.1410    7.0210   -4.2710 ho        1 MOL      0.377469
    190 O27        -1.8020    7.5670   -3.1090 oh        1 MOL     -0.742633
    191 H94        -2.2130    7.3150   -2.2790 ho        1 MOL      0.377469
    192 H95        -1.6090    8.4950   -2.9980 ho        1 MOL      0.377469
    193 O28         1.4850    3.8910   -3.8460 oh        1 MOL     -0.742633
    194 H96         1.4030    2.9640   -3.6130 ho        1 MOL      0.377469
    195 H97         1.9440    3.8930   -4.6780 ho        1 MOL      0.377469
@<TRIPOS>BOND
     1    1    2 1   
     2    1    4 1   
     3    1    5 1   
     4    1    6 1   
     5    2    3 2   
     6    2    7 1   
     7    7    8 1   
     8    7   15 1   
     9    8    9 1   
    10    8   11 1   
    11    8   16 1   
    12    9   10 2   
    13    9   19 1   
    14   11   12 1   
    15   11   17 1   
    16   11   18 1   
    17   12   13 1   
    18   12   14 1   
    19   19   20 1   
    20   19   28 1   
    21   20   21 1   
    22   20   23 1   
    23   20   29 1   
    24   21   22 2   
    25   21   41 1   
    26   23   24 1   
    27   23   30 1   
    28   23   31 1   
    29   24   25 1   
    30   24   32 1   
    31   24   33 1   
    32   25   26 1   
    33   25   34 1   
    34   25   35 1   
    35   26   27 1   
    36   26   36 1   
    37   26   37 1   
    38   27   38 1   
    39   27   39 1   
    40   27   40 1   
    41   41   42 1   
    42   41   49 1   
    43   42   43 1   
    44   42   45 1   
    45   42   50 1   
    46   43   44 2   
    47   43   53 1   
    48   45   46 1   
    49   45   51 1   
    50   45   52 1   
    51   46   47 1   
    52   46   48 1   
    53   53   54 1   
    54   53   57 1   
    55   54   55 1   
    56   54   58 1   
    57   54   59 1   
    58   55   56 2   
    59   55   60 1   
    60   60   61 1   
    61   60   68 1   
    62   61   62 1   
    63   61   64 1   
    64   61   69 1   
    65   62   63 2   
    66   62   72 1   
    67   64   65 1   
    68   64   70 1   
    69   64   71 1   
    70   65   66 1   
    71   65   67 1   
    72   72   73 1   
    73   72   76 1   
    74   73   74 1   
    75   73   77 1   
    76   73   78 1   
    77   74   75 2   
    78   74   79 1   
    79   79   80 1   
    80   79   86 1   
    81   80   81 1   
    82   80   83 1   
    83   80   87 1   
    84   81   82 2   
    85   81   93 1   
    86   83   84 1   
    87   83   85 1   
    88   83   88 1   
    89   84   90 1   
    90   84   91 1   
    91   84   92 1   
    92   85   89 1   
    93   93   94 1   
    94   93  101 1   
    95   94   95 1   
    96   94   97 1   
    97   94  102 1   
    98   95   96 2   
    99   95  112 1   
   100   97   98 1   
   101   97   99 1   
   102   97  103 1   
   103   98  100 1   
   104   98  104 1   
   105   98  105 1   
   106   99  106 1   
   107   99  107 1   
   108   99  108 1   
   109  100  109 1   
   110  100  110 1   
   111  100  111 1   
   112  112  113 1   
   113  112  119 1   
   114  113  114 1   
   115  113  116 1   
   116  113  120 1   
   117  114  115 2   
   118  114  126 1   
   119  116  117 1   
   120  116  118 1   
   121  116  121 1   
   122  117  123 1   
   123  117  124 1   
   124  117  125 1   
   125  118  122 1   
   126  126  127 1   
   127  126  133 1   
   128  127  128 1   
   129  127  130 1   
   130  127  134 1   
   131  128  129 2   
   132  128  140 1   
   133  130  131 1   
   134  130  132 1   
   135  130  135 1   
   136  131  137 1   
   137  131  138 1   
   138  131  139 1   
   139  132  136 1   
   140  140  141 1   
   141  140  149 1   
   142  141  142 1   
   143  141  144 1   
   144  141  150 1   
   145  142  143 2   
   146  142  162 1   
   147  144  145 1   
   148  144  151 1   
   149  144  152 1   
   150  145  146 1   
   151  145  153 1   
   152  145  154 1   
   153  146  147 1   
   154  146  155 1   
   155  146  156 1   
   156  147  148 1   
   157  147  157 1   
   158  147  158 1   
   159  148  159 1   
   160  148  160 1   
   161  148  161 1   
   162  162  163 1   
   163  162  171 1   
   164  163  164 1   
   165  163  166 1   
   166  163  172 1   
   167  164  165 2   
   168  164  177 1   
   169  166  167 1   
   170  166  173 1   
   171  166  174 1   
   172  167  168 1   
   173  167  175 1   
   174  167  176 1   
   175  168  169 1   
   176  168  170 1   
   177  177  178 1   
   178  177  182 1   
   179  178  179 1   
   180  178  180 1   
   181  178  181 1   
   182  184  185 1   
   183  184  186 1   
   184  187  188 1   
   185  187  189 1   
   186  190  191 1   
   187  190  192 1   
   188  193  194 1   
   189  193  195 1   
@<TRIPOS>SUBSTRUCTURE
     1 MOL         1 TEMP              0 ****  ****    0 ROOT
