@<TRIPOS>MOLECULE
MOL
  181   177     1     0     0
SMALL
resp


@<TRIPOS>ATOM
      1 C1         -3.8780   -1.9090   -3.1830 c3        1 MOL     -0.461757
      2 C2         -5.1680   -0.9480   -3.1010 c         1 MOL      0.575735
      3 O1         -5.0280    0.1360   -2.5170 o         1 MOL     -0.580004
      4 H1         -4.1040   -2.8610   -2.7020 hc        1 MOL      0.138932
      5 H2         -3.6200   -2.0840   -4.2280 hc        1 MOL      0.138932
      6 H3         -3.0390   -1.4360   -2.6740 hc        1 MOL      0.138932
      7 N1         -6.3510   -1.3340   -3.5680 n         1 MOL     -0.417992
      8 C3         -7.6630   -0.6630   -3.4220 c3        1 MOL      0.049459
      9 C4         -8.1940   -0.9570   -1.9900 c         1 MOL      0.668711
     10 O2         -8.3050   -2.1210   -1.5840 o         1 MOL     -0.585827
     11 C5         -8.6740   -1.3400   -4.4240 c3        1 MOL     -0.097766
     12 C6         -9.9750   -0.6220   -4.6410 c         1 MOL      0.620084
     13 O3        -10.8460   -1.3490   -5.1970 o         1 MOL     -0.713524
     14 O4        -10.2510    0.3800   -3.9790 o         1 MOL     -0.713524
     15 H4         -6.3780   -2.2780   -3.9010 hn        1 MOL      0.236014
     16 H5         -7.3830    0.3670   -3.6320 h1        1 MOL      0.045766
     17 H6         -8.7850   -2.4030   -4.2290 hc        1 MOL      0.016107
     18 H7         -8.1490   -1.3420   -5.3880 hc        1 MOL      0.016107
     19 N2         -8.5710    0.1020   -1.2540 n         1 MOL     -0.412445
     20 C7         -8.8930    0.0420    0.0930 c3        1 MOL      0.398508
     21 C8         -7.6620   -0.3290    1.0110 c         1 MOL      0.331476
     22 O5         -7.8750   -0.7420    2.1790 o         1 MOL     -0.547691
     23 C9         -9.4940    1.3870    0.4630 c3        1 MOL     -0.292985
     24 H8         -8.5440    1.0010   -1.7080 hn        1 MOL      0.226677
     25 H9         -9.6380   -0.7300    0.3080 h1        1 MOL      0.010252
     26 H10       -10.3600    1.6550   -0.1420 hc        1 MOL      0.057493
     27 H11        -9.8340    1.2600    1.4910 hc        1 MOL      0.057493
     28 H12        -8.6580    2.0770    0.3650 hc        1 MOL      0.057493
     29 N3         -6.4760   -0.2240    0.4340 n         1 MOL     -0.495299
     30 C10        -5.1770   -0.7800    0.9410 c3        1 MOL      0.586723
     31 C11        -4.8220   -0.2670    2.4170 c         1 MOL      0.277198
     32 O6         -4.4060   -1.0950    3.2900 o         1 MOL     -0.487025
     33 C12        -5.1540   -2.3070    0.7640 c3        1 MOL     -0.024203
     34 C13        -3.6840   -2.8180    0.9910 c         1 MOL      0.635002
     35 O7         -2.6740   -2.2850    0.5160 o         1 MOL     -0.775665
     36 O8         -3.4190   -3.8510    1.7420 o         1 MOL     -0.775665
     37 H13        -6.5660    0.0620   -0.5260 hn        1 MOL      0.157732
     38 H14        -4.4280   -0.3050    0.3130 h1        1 MOL     -0.046481
     39 H15        -5.4870   -2.5080   -0.2530 hc        1 MOL     -0.001988
     40 H16        -5.8050   -2.7310    1.5310 hc        1 MOL     -0.001988
     41 N4         -5.2030    0.9360    2.8120 n         1 MOL     -0.029546
     42 C14        -5.1020    1.4830    4.1750 c3        1 MOL     -0.389870
     43 C15        -3.7370    1.9020    4.3770 c         1 MOL      0.496741
     44 O9         -3.3980    1.9180    5.5820 o         1 MOL     -0.499279
     45 H17        -5.5440    1.5160    2.0500 hn        1 MOL      0.166464
     46 H18        -5.4400    0.7120    4.8610 h1        1 MOL      0.167603
     47 H19        -5.7120    2.3750    4.2310 h1        1 MOL      0.167603
     48 N5         -2.8090    2.0260    3.3810 n         1 MOL     -0.214538
     49 C16        -1.5900    2.8660    3.6030 c3        1 MOL     -0.003934
     50 C17        -1.3690    3.6740    2.3110 c         1 MOL      0.589609
     51 O10        -1.6250    3.0910    1.2830 o         1 MOL     -0.443796
     52 C18        -0.4100    1.8740    3.8930 c3        1 MOL     -0.296232
     53 C19        -0.5240    1.2090    5.2780 c         1 MOL      0.692322
     54 N6         -0.2240    1.8460    6.4150 n         1 MOL     -0.847550
     55 O11        -0.8850    0.0420    5.3470 o         1 MOL     -0.532783
     56 H20        -3.1420    1.8540    2.4460 hn        1 MOL      0.139610
     57 H21        -1.7470    3.5560    4.4240 h1        1 MOL      0.005673
     58 H22         0.5380    2.4070    3.8440 hc        1 MOL      0.107640
     59 H23        -0.4660    1.1700    3.0560 hc        1 MOL      0.107640
     60 H24         0.1280    2.7890    6.3340 hn        1 MOL      0.381481
     61 H25        -0.2790    1.3640    7.3090 hn        1 MOL      0.381481
     62 N7         -1.0430    4.9520    2.3510 n         1 MOL     -0.552316
     63 C20        -0.9650    5.7880    1.1290 c3        1 MOL     -0.118682
     64 C21         0.5650    5.8160    0.6760 c         1 MOL      0.505775
     65 O12         1.3930    5.1590    1.3130 o         1 MOL     -0.427786
     66 H26        -0.8770    5.3930    3.2470 hn        1 MOL      0.338442
     67 H27        -1.1660    6.8090    1.4760 h1        1 MOL      0.109376
     68 H28        -1.6660    5.4760    0.3620 h1        1 MOL      0.109376
     69 N8          0.8830    6.5440   -0.3620 n         1 MOL     -0.303757
     70 C22         2.2040    6.7350   -1.0120 c3        1 MOL     -0.591323
     71 C23         2.7440    5.4850   -1.6790 c         1 MOL      0.589941
     72 O13         3.9560    5.3440   -1.8790 o         1 MOL     -0.526715
     73 C24         2.1590    7.9400   -1.9190 c3        1 MOL      0.523052
     74 C25         1.4310    7.7680   -3.3120 c3        1 MOL     -0.414493
     75 O14         1.6470    9.0910   -1.3260 oh        1 MOL     -0.631443
     76 H29         0.0980    6.9630   -0.8280 hn        1 MOL      0.218766
     77 H30         2.8890    6.9910   -0.1970 h1        1 MOL      0.266018
     78 H31         3.1700    8.3040   -2.1560 h1        1 MOL      0.050956
     79 H32         0.6930    9.0510   -1.2060 ho        1 MOL      0.388699
     80 H33         0.4030    7.4150   -3.2260 hc        1 MOL      0.107045
     81 H34         1.2440    8.7620   -3.7270 hc        1 MOL      0.107045
     82 H35         2.0480    7.0960   -3.9030 hc        1 MOL      0.107045
     83 N9          1.8650    4.5150   -2.0640 n         1 MOL     -0.239377
     84 C26         2.1680    3.2190   -2.6800 c3        1 MOL     -0.071517
     85 C27         1.5240    2.1180   -1.8460 c         1 MOL      0.459275
     86 O15         0.4890    2.3070   -1.2560 o         1 MOL     -0.458911
     87 C28         1.7370    3.0910   -4.1310 c3        1 MOL      0.129666
     88 C29         2.0720    4.3030   -4.9690 c3        1 MOL     -0.032059
     89 C30         2.2170    1.7870   -4.8680 c3        1 MOL     -0.066958
     90 C31         3.5530    4.5680   -5.2100 c3        1 MOL     -0.032943
     91 H36         0.9310    4.6610   -1.7250 hn        1 MOL      0.225385
     92 H37         3.2420    3.0930   -2.7580 h1        1 MOL      0.072304
     93 H38         0.6660    3.0230   -3.9710 hc        1 MOL      0.005755
     94 H39         1.6220    5.1520   -4.4630 hc        1 MOL     -0.011719
     95 H40         1.6720    4.1770   -5.9750 hc        1 MOL     -0.011719
     96 H41         3.2880    1.7860   -5.1030 hc        1 MOL      0.007977
     97 H42         1.9540    0.9540   -4.2090 hc        1 MOL      0.007977
     98 H43         1.5990    1.6620   -5.7550 hc        1 MOL      0.007977
     99 H44         3.7080    5.6000   -5.5420 hc        1 MOL      0.009381
    100 H45         4.1550    4.4380   -4.3070 hc        1 MOL      0.009381
    101 H46         3.9390    3.8790   -5.9650 hc        1 MOL      0.009381
    102 N10         2.3480    0.9940   -1.7300 n         1 MOL     -0.155353
    103 C32         2.0840   -0.0240   -0.7590 c3        1 MOL      0.028006
    104 C33         3.5060   -0.4330   -0.1830 c         1 MOL      0.364914
    105 O16         3.6790   -1.6330    0.1600 o         1 MOL     -0.491240
    106 C34         1.2760   -1.1600   -1.4440 c3        1 MOL     -0.172835
    107 C35         0.6530   -2.1080   -0.3770 c         1 MOL      0.988783
    108 O17         0.5600   -1.7770    0.8350 o         1 MOL     -0.791216
    109 O18         0.0140   -3.0980   -0.7730 o         1 MOL     -0.791216
    110 H47         3.2670    0.9590   -2.1360 hn        1 MOL      0.170255
    111 H48         1.4920    0.5030   -0.0040 h1        1 MOL      0.075643
    112 H49         1.9860   -1.7400   -2.0380 hc        1 MOL      0.009942
    113 H50         0.5400   -0.7020   -2.1100 hc        1 MOL      0.009942
    114 N11         4.4480    0.4430   -0.0200 n         1 MOL     -0.206463
    115 C36         5.7310    0.2370    0.6050 c3        1 MOL      0.251381
    116 C37         6.5090   -0.7340   -0.3530 c         1 MOL      0.156284
    117 O19         6.6640   -0.4120   -1.5570 o         1 MOL     -0.494135
    118 C38         6.5230    1.5350    0.8380 c3        1 MOL     -0.312443
    119 C39         5.8590    2.6050    1.7080 ca        1 MOL      0.113362
    120 C40         5.2550    3.6590    1.0650 ca        1 MOL     -0.151985
    121 C41         5.9430    2.5240    3.0890 ca        1 MOL     -0.151985
    122 C42         4.6800    4.7040    1.8350 ca        1 MOL     -0.089179
    123 C43         5.3520    3.5550    3.8990 ca        1 MOL     -0.089179
    124 C44         4.7380    4.6430    3.2450 ca        1 MOL     -0.148309
    125 H51         4.1400    1.3990   -0.1550 hn        1 MOL      0.135539
    126 H52         5.6220   -0.1610    1.6140 h1        1 MOL      0.004163
    127 H53         6.7590    1.9740   -0.1280 hc        1 MOL      0.112687
    128 H54         7.4580    1.2700    1.3410 hc        1 MOL      0.112687
    129 H55         5.2930    3.6590   -0.0140 ha        1 MOL      0.107843
    130 H56         6.4460    1.7030    3.5760 ha        1 MOL      0.107843
    131 H57         4.1990    5.4940    1.2860 ha        1 MOL      0.094487
    132 H58         5.4930    3.5440    4.9660 ha        1 MOL      0.094487
    133 H59         4.2650    5.4070    3.8390 ha        1 MOL      0.109251
    134 N12         6.9150   -1.9260    0.1850 n         1 MOL      0.203871
    135 C45         7.7280   -2.9580   -0.5360 c3        1 MOL     -0.006893
    136 C46         6.8400   -3.8670   -1.3700 c         1 MOL      0.230730
    137 O20         7.4000   -4.5070   -2.2910 o         1 MOL     -0.506082
    138 C47         8.5240   -3.6760    0.5550 c3        1 MOL     -0.030431
    139 C48         7.6650   -3.6180    1.7520 c3        1 MOL      0.202939
    140 C49         6.9380   -2.2670    1.5440 c3        1 MOL     -0.464670
    141 H60         8.5150   -2.4600   -1.1010 h1        1 MOL      0.070376
    142 H61         8.7640   -4.7060    0.2850 hc        1 MOL      0.027296
    143 H62         9.4070   -3.0790    0.8070 hc        1 MOL      0.027296
    144 H63         7.0120   -4.4940    1.8220 hc        1 MOL     -0.019611
    145 H64         8.3350   -3.6710    2.6040 hc        1 MOL     -0.019611
    146 H65         5.9380   -2.3690    1.9820 h1        1 MOL      0.122460
    147 H66         7.4430   -1.4450    2.0410 h1        1 MOL      0.122460
    148 N13         5.5480   -4.1020   -1.0630 n         1 MOL     -0.065399
    149 C50         4.6550   -5.0040   -1.7680 c3        1 MOL     -0.119364
    150 C51         4.5890   -4.7690   -3.3000 c         1 MOL      0.494571
    151 O21         4.5480   -5.7480   -4.1010 o         1 MOL     -0.557916
    152 C52         3.3110   -5.1430   -1.0660 c3        1 MOL      0.226371
    153 C53         3.4200   -5.9180    0.2820 c3        1 MOL     -0.506248
    154 C54         1.9750   -5.9810    0.7880 c         1 MOL      1.002320
    155 O22         1.3860   -7.0790    0.9520 o         1 MOL     -0.822505
    156 O23         1.4360   -4.9980    1.2750 o         1 MOL     -0.822505
    157 H67         5.2290   -3.4870   -0.3180 hn        1 MOL      0.199440
    158 H68         5.0430   -6.0240   -1.7980 h1        1 MOL      0.090622
    159 H69         2.6510   -5.6730   -1.7590 hc        1 MOL     -0.039590
    160 H70         2.8360   -4.1770   -0.8950 hc        1 MOL     -0.039590
    161 H71         4.0300   -5.3500    0.9820 hc        1 MOL      0.103897
    162 H72         3.8110   -6.9000    0.0070 hc        1 MOL      0.103897
    163 N14         4.7000   -3.5220   -3.7200 n         1 MOL     -0.270221
    164 C55         4.2670   -3.0550   -5.0870 c3        1 MOL     -0.161496
    165 H73         4.9890   -2.3340   -5.4700 h1        1 MOL      0.088041
    166 H74         4.2150   -3.9090   -5.7630 h1        1 MOL      0.088041
    167 H75         3.2870   -2.5840   -5.0180 h1        1 MOL      0.088041
    168 H76         4.8360   -2.8420   -2.9820 hn        1 MOL      0.245071
    169 Ca1        -0.7860   -3.8130    1.6400 Ca        1 MOL      1.825213
    170 O24        -1.6830   -1.4840    3.2180 oh        1 MOL     -0.849412
    171 H77        -1.3390   -1.0370    3.9910 ho        1 MOL      0.406907
    172 H78        -2.6290   -1.3420    3.2710 ho        1 MOL      0.406907
    173 O25         0.4740   -3.5620    3.9820 oh        1 MOL     -0.849412
    174 H79         1.1310   -2.8940    4.1690 ho        1 MOL      0.406907
    175 H80         0.1410   -3.8310    4.8450 ho        1 MOL      0.406907
    176 O26        -1.0730   -6.0530    0.3470 oh        1 MOL     -0.849412
    177 H81        -0.2790   -6.5650    0.4740 ho        1 MOL      0.406907
    178 H82        -1.7920   -6.6740    0.4840 ho        1 MOL      0.406907
    179 O27        -1.3200   -5.5710    3.5370 oh        1 MOL     -0.849412
    180 H83        -0.5810   -6.1640    3.6470 ho        1 MOL      0.406907
    181 H84        -2.0290   -5.9660    4.0460 ho        1 MOL      0.406907
@<TRIPOS>BOND
     1    1    2 1   
     2    1    4 1   
     3    1    5 1   
     4    1    6 1   
     5    2    3 2   
     6    2    7 1   
     7    7    8 1   
     8    7   15 1   
     9    8    9 1   
    10    8   11 1   
    11    8   16 1   
    12    9   10 2   
    13    9   19 1   
    14   11   12 1   
    15   11   17 1   
    16   11   18 1   
    17   12   13 1   
    18   12   14 1   
    19   19   20 1   
    20   19   24 1   
    21   20   21 1   
    22   20   23 1   
    23   20   25 1   
    24   21   22 2   
    25   21   29 1   
    26   23   26 1   
    27   23   27 1   
    28   23   28 1   
    29   29   30 1   
    30   29   37 1   
    31   30   31 1   
    32   30   33 1   
    33   30   38 1   
    34   31   32 2   
    35   31   41 1   
    36   33   34 1   
    37   33   39 1   
    38   33   40 1   
    39   34   35 1   
    40   34   36 1   
    41   41   42 1   
    42   41   45 1   
    43   42   43 1   
    44   42   46 1   
    45   42   47 1   
    46   43   44 2   
    47   43   48 1   
    48   48   49 1   
    49   48   56 1   
    50   49   50 1   
    51   49   52 1   
    52   49   57 1   
    53   50   51 2   
    54   50   62 1   
    55   52   53 1   
    56   52   58 1   
    57   52   59 1   
    58   53   54 1   
    59   53   55 2   
    60   54   60 1   
    61   54   61 1   
    62   62   63 1   
    63   62   66 1   
    64   63   64 1   
    65   63   67 1   
    66   63   68 1   
    67   64   65 2   
    68   64   69 1   
    69   69   70 1   
    70   69   76 1   
    71   70   71 1   
    72   70   73 1   
    73   70   77 1   
    74   71   72 2   
    75   71   83 1   
    76   73   74 1   
    77   73   75 1   
    78   73   78 1   
    79   74   80 1   
    80   74   81 1   
    81   74   82 1   
    82   75   79 1   
    83   83   84 1   
    84   83   91 1   
    85   84   85 1   
    86   84   87 1   
    87   84   92 1   
    88   85   86 2   
    89   85  102 1   
    90   87   88 1   
    91   87   89 1   
    92   87   93 1   
    93   88   90 1   
    94   88   94 1   
    95   88   95 1   
    96   89   96 1   
    97   89   97 1   
    98   89   98 1   
    99   90   99 1   
   100   90  100 1   
   101   90  101 1   
   102  102  103 1   
   103  102  110 1   
   104  103  104 1   
   105  103  106 1   
   106  103  111 1   
   107  104  105 2   
   108  104  114 1   
   109  106  107 1   
   110  106  112 1   
   111  106  113 1   
   112  107  108 1   
   113  107  109 1   
   114  114  115 1   
   115  114  125 1   
   116  115  116 1   
   117  115  118 1   
   118  115  126 1   
   119  116  117 2   
   120  116  134 1   
   121  118  119 1   
   122  118  127 1   
   123  118  128 1   
   124  119  120 ar  
   125  119  121 ar  
   126  120  122 ar  
   127  120  129 1   
   128  121  123 ar  
   129  121  130 1   
   130  122  124 ar  
   131  122  131 1   
   132  123  124 ar  
   133  123  132 1   
   134  124  133 1   
   135  134  135 1   
   136  134  140 1   
   137  135  136 1   
   138  135  138 1   
   139  135  141 1   
   140  136  137 2   
   141  136  148 1   
   142  138  139 1   
   143  138  142 1   
   144  138  143 1   
   145  139  140 1   
   146  139  144 1   
   147  139  145 1   
   148  140  146 1   
   149  140  147 1   
   150  148  149 1   
   151  148  157 1   
   152  149  150 1   
   153  149  152 1   
   154  149  158 1   
   155  150  151 2   
   156  150  163 1   
   157  152  153 1   
   158  152  159 1   
   159  152  160 1   
   160  153  154 1   
   161  153  161 1   
   162  153  162 1   
   163  154  155 1   
   164  154  156 1   
   165  163  164 1   
   166  163  168 1   
   167  164  165 1   
   168  164  166 1   
   169  164  167 1   
   170  170  171 1   
   171  170  172 1   
   172  173  174 1   
   173  173  175 1   
   174  176  177 1   
   175  176  178 1   
   176  179  180 1   
   177  179  181 1   
@<TRIPOS>SUBSTRUCTURE
     1 MOL         1 TEMP              0 ****  ****    0 ROOT
