@<TRIPOS>MOLECULE
MOL
  182   178     1     0     0
SMALL
resp


@<TRIPOS>ATOM
      1 C1          1.6160   -4.7170    5.9110 c3        1 MOL     -0.428749
      2 C2          1.4250   -4.1380    4.4840 c         1 MOL      0.668841
      3 O1          0.3080   -4.0120    3.9300 o         1 MOL     -0.600757
      4 H1          1.3490   -3.9600    6.6490 hc        1 MOL      0.124674
      5 H2          0.9750   -5.5900    6.0390 hc        1 MOL      0.124674
      6 H3          2.6570   -5.0070    6.0490 hc        1 MOL      0.124674
      7 N1          2.5060   -3.5940    3.9210 n         1 MOL     -0.506645
      8 C3          2.5770   -2.9400    2.5800 c3        1 MOL     -0.261629
      9 C4          3.1840   -3.9570    1.5690 c         1 MOL      0.692127
     10 O2          4.3410   -4.2570    1.6820 o         1 MOL     -0.538336
     11 C5          3.4500   -1.6300    2.6510 c3        1 MOL      0.329229
     12 C6          3.5260   -0.7910    1.3330 c         1 MOL      0.483901
     13 O3          3.7980    0.4190    1.3770 o         1 MOL     -0.695129
     14 O4          3.3410   -1.3990    0.2360 o         1 MOL     -0.695129
     15 H4          3.3890   -3.5840    4.4040 hn        1 MOL      0.305378
     16 H5          1.5600   -2.8070    2.2240 h1        1 MOL      0.164655
     17 H6          4.4310   -1.9220    3.0350 hc        1 MOL     -0.051126
     18 H7          3.0310   -0.9450    3.3910 hc        1 MOL     -0.051126
     19 N2          2.4670   -4.2960    0.4450 n         1 MOL     -0.581191
     20 C7          2.7800   -5.3390   -0.5610 c3        1 MOL      0.025529
     21 C8          4.0210   -5.0780   -1.3820 c         1 MOL      0.592137
     22 O5          4.7400   -6.0360   -1.7660 o         1 MOL     -0.578153
     23 C9          1.4890   -5.5870   -1.3870 c3        1 MOL      0.047399
     24 C10         0.6470   -6.7630   -0.7880 c3        1 MOL      0.137119
     25 C11        -0.3000   -7.2960   -1.8950 c3        1 MOL     -0.019834
     26 C12        -1.4510   -8.2370   -1.3790 c3        1 MOL      0.120645
     27 N3         -2.1930   -8.8310   -2.4920 n4        1 MOL     -0.194462
     28 H8          1.6900   -3.6610    0.3350 hn        1 MOL      0.316469
     29 H9          2.9560   -6.2210    0.0530 h1        1 MOL      0.085939
     30 H10         1.8770   -5.9680   -2.3260 hc        1 MOL     -0.016417
     31 H11         0.9090   -4.6830   -1.5430 hc        1 MOL     -0.016417
     32 H12         0.0220   -6.3250   -0.0050 hc        1 MOL     -0.022604
     33 H13         1.2990   -7.5920   -0.5040 hc        1 MOL     -0.022604
     34 H14         0.3040   -7.7660   -2.6640 hc        1 MOL      0.007244
     35 H15        -0.8050   -6.4110   -2.2700 hc        1 MOL      0.007244
     36 H16        -2.0760   -7.5860   -0.7670 hx        1 MOL      0.032325
     37 H17        -1.1540   -9.0230   -0.6850 hx        1 MOL      0.032325
     38 H18        -2.6820   -8.1140   -3.0100 hn        1 MOL      0.223757
     39 H19        -1.5410   -9.2220   -3.1690 hn        1 MOL      0.223757
     40 H20        -2.8870   -9.5090   -2.2180 hn        1 MOL      0.223757
     41 N4          4.2810   -3.7960   -1.6780 n         1 MOL     -0.445849
     42 C13         5.4880   -3.3010   -2.4290 c3        1 MOL      0.217792
     43 C14         6.4470   -2.4990   -1.5390 c         1 MOL      0.353974
     44 O6          7.5200   -2.1680   -2.0650 o         1 MOL     -0.559853
     45 C15         4.9880   -2.4080   -3.5480 c3        1 MOL     -0.412417
     46 C16         4.1670   -1.2390   -2.9240 c         1 MOL      1.130911
     47 O7          4.7410   -0.2950   -2.4420 o         1 MOL     -0.861379
     48 O8          2.9550   -1.1170   -3.1920 o         1 MOL     -0.861379
     49 H21         3.6740   -3.0770   -1.3270 hn        1 MOL      0.166027
     50 H22         6.0360   -4.1610   -2.8180 h1        1 MOL      0.096804
     51 H23         4.2780   -2.9240   -4.1910 hc        1 MOL      0.085489
     52 H24         5.7290   -1.9900   -4.2380 hc        1 MOL      0.085489
     53 N5          6.1250   -2.0910   -0.2970 n         1 MOL     -0.088632
     54 C17         7.1260   -1.5530    0.6380 c3        1 MOL     -0.154727
     55 C18         7.4150   -0.0680    0.5310 c         1 MOL      0.505135
     56 O9          8.1010    0.4470    1.4180 o         1 MOL     -0.571172
     57 H25         5.1490   -1.9250   -0.1150 hn        1 MOL      0.023578
     58 H26         8.0910   -1.9910    0.3700 h1        1 MOL      0.112861
     59 H27         7.0410   -1.8490    1.6850 h1        1 MOL      0.112861
     60 N6          6.8490    0.6080   -0.3920 n         1 MOL     -0.135169
     61 C19         6.9510    2.0880   -0.4220 c3        1 MOL      0.042734
     62 C20         5.5720    2.7650   -0.7030 c         1 MOL      0.465407
     63 O10         4.5100    2.1770   -0.8530 o         1 MOL     -0.331050
     64 C21         8.0500    2.5050   -1.4760 c3        1 MOL     -0.203627
     65 C22         9.2930    1.6470   -1.5000 c         1 MOL      0.631853
     66 N7          9.4840    0.8170   -2.4870 n         1 MOL     -0.823205
     67 O11        10.0790    1.8460   -0.5320 o         1 MOL     -0.543471
     68 H28         6.1850    0.2420   -1.0610 hn        1 MOL      0.213391
     69 H29         7.2960    2.5050    0.5220 h1        1 MOL      0.075488
     70 H30         8.3210    3.5380   -1.2520 hc        1 MOL      0.038079
     71 H31         7.6780    2.5280   -2.4990 hc        1 MOL      0.038079
     72 H32         8.7840    0.7630   -3.2090 hn        1 MOL      0.397058
     73 H33        10.1890    0.1000   -2.3910 hn        1 MOL      0.397058
     74 N8          5.5820    4.0880   -0.5990 n         1 MOL     -0.494877
     75 C23         4.4880    5.0130   -0.9990 c3        1 MOL     -0.114631
     76 C24         3.4170    5.1140    0.1100 c         1 MOL      0.667562
     77 O12         3.7330    5.3160    1.3180 o         1 MOL     -0.510928
     78 H34         6.3970    4.5790   -0.2620 hn        1 MOL      0.350088
     79 H35         4.0630    4.4940   -1.8570 h1        1 MOL      0.091808
     80 H36         4.8830    5.9800   -1.2950 h1        1 MOL      0.091808
     81 N9          2.1290    4.9820   -0.3320 n         1 MOL     -0.742309
     82 C25         1.0510    4.8540    0.6010 c3        1 MOL      0.338824
     83 C26         1.0660    3.4170    1.1940 c         1 MOL      0.570166
     84 O13         1.6670    2.5680    0.4890 o         1 MOL     -0.552514
     85 C27        -0.3270    5.2780   -0.0200 c3        1 MOL     -0.333878
     86 C28        -0.4330    6.7300   -0.5470 ca        1 MOL      0.177014
     87 C29         0.2140    7.8140    0.1500 ca        1 MOL     -0.154118
     88 C30        -1.3360    6.9990   -1.5310 ca        1 MOL     -0.154118
     89 C31         0.0740    9.1210   -0.3490 ca        1 MOL     -0.291210
     90 C32        -1.5190    8.3060   -1.9750 ca        1 MOL     -0.291210
     91 C33        -0.8920    9.3860   -1.3540 ca        1 MOL      0.341275
     92 O14        -1.1880   10.6960   -1.7560 oh        1 MOL     -0.478455
     93 H37         1.9320    4.6350   -1.2600 hn        1 MOL      0.324936
     94 H38         1.2200    5.4700    1.4850 h1        1 MOL      0.030038
     95 H39        -1.2030    5.1960    0.6340 hc        1 MOL      0.087069
     96 H40        -0.4080    4.7270   -0.9570 hc        1 MOL      0.087069
     97 H41         0.7880    7.5380    1.0160 ha        1 MOL      0.128280
     98 H42        -1.8630    6.1410   -1.9280 ha        1 MOL      0.128280
     99 H43         0.5900    9.9740    0.0750 ha        1 MOL      0.169499
    100 H44        -2.2060    8.5360   -2.7780 ha        1 MOL      0.169499
    101 H45        -0.6140   11.2470   -1.2250 ho        1 MOL      0.361666
    102 N10         0.4550    3.1250    2.2810 n         1 MOL     -0.691812
    103 C34         0.2330    1.8400    2.9560 c3        1 MOL      0.214705
    104 C35        -0.0680    0.6570    2.0170 c         1 MOL      0.374572
    105 O15         0.7670    0.0230    1.4090 o         1 MOL     -0.353710
    106 C36         1.3610    1.5140    4.0410 c3        1 MOL      0.257854
    107 C37         1.0350    0.4270    5.1220 c3        1 MOL     -0.324345
    108 C38         1.8800    2.8540    4.6110 c3        1 MOL     -0.358791
    109 C39        -0.1410    0.6360    6.0570 c3        1 MOL     -0.020470
    110 H46         0.1810    3.9440    2.8070 hn        1 MOL      0.336675
    111 H47        -0.6740    2.0340    3.5300 h1        1 MOL      0.027007
    112 H48         2.2090    1.1580    3.4650 hc        1 MOL      0.073252
    113 H49         1.8620    0.4030    5.8370 hc        1 MOL      0.107237
    114 H50         0.9270   -0.5400    4.6200 hc        1 MOL      0.107237
    115 H51         2.3440    3.5650    3.9270 hc        1 MOL      0.090062
    116 H52         1.0870    3.3170    5.2010 hc        1 MOL      0.090062
    117 H53         2.7130    2.5070    5.2230 hc        1 MOL      0.090062
    118 H54        -1.0700    0.5910    5.4980 hc        1 MOL      0.016838
    119 H55        -0.1400   -0.1610    6.8020 hc        1 MOL      0.016838
    120 H56        -0.0430    1.6260    6.4960 hc        1 MOL      0.016838
    121 N11        -1.3100    0.2630    2.1040 n         1 MOL     -0.365813
    122 C40        -1.7720   -0.7730    1.1950 c3        1 MOL     -0.219250
    123 C41        -3.2770   -0.8550    1.0650 c         1 MOL      0.812183
    124 O16        -4.0390   -1.0610    1.9500 o         1 MOL     -0.559598
    125 C42        -1.3430   -2.1740    1.7230 c3        1 MOL     -0.093148
    126 O17        -0.9770   -3.0820    0.6580 oh        1 MOL     -0.671521
    127 H57        -1.9770    0.8920    2.5340 hn        1 MOL      0.288396
    128 H58        -1.3330   -0.5460    0.2220 h1        1 MOL      0.154457
    129 H59        -2.1470   -2.6690    2.2830 h1        1 MOL      0.144790
    130 H60        -0.4660   -2.0270    2.3600 h1        1 MOL      0.144790
    131 H61        -1.5990   -3.8080    0.6360 ho        1 MOL      0.484483
    132 N12        -3.7130   -0.6240   -0.1810 n         1 MOL     -0.703624
    133 C43        -5.1610   -0.6100   -0.5920 c3        1 MOL      0.250716
    134 C44        -5.3480   -1.1480   -2.0030 c         1 MOL      0.543983
    135 O18        -4.3890   -1.0150   -2.7690 o         1 MOL     -0.574898
    136 C45        -5.5830    0.8730   -0.5210 c3        1 MOL     -0.197691
    137 H62        -3.0760   -0.3480   -0.9150 hn        1 MOL      0.292623
    138 H63        -5.6840   -1.2610    0.1100 h1        1 MOL      0.046276
    139 H64        -4.8350    1.3680   -1.1420 hc        1 MOL      0.053248
    140 H65        -6.5800    1.1040   -0.8950 hc        1 MOL      0.053248
    141 H66        -5.3920    1.2220    0.5010 hc        1 MOL      0.053248
    142 N13        -6.4890   -1.7670   -2.2620 n         1 MOL     -0.551557
    143 C46        -7.7610   -1.7800   -1.5670 c3        1 MOL      0.304770
    144 C47        -8.5790   -0.6790   -2.4180 c         1 MOL      0.669404
    145 O19        -8.4160   -0.5180   -3.6000 o         1 MOL     -0.550012
    146 C48        -8.3160   -3.1830   -1.7030 c3        1 MOL     -0.516783
    147 H67        -6.6590   -1.8830   -3.2400 hn        1 MOL      0.300870
    148 H68        -7.5940   -1.4280   -0.5520 h1        1 MOL      0.033677
    149 H69        -8.3180   -3.6260   -2.7020 hc        1 MOL      0.147799
    150 H70        -7.7690   -3.7500   -0.9560 hc        1 MOL      0.147799
    151 H71        -9.3380   -3.0660   -1.3390 hc        1 MOL      0.147799
    152 N14        -9.4260    0.1440   -1.7200 n         1 MOL     -0.699143
    153 C49       -10.1210   -0.0480   -0.4440 c3        1 MOL      0.175271
    154 C50        -9.5150    0.7670    0.7020 c         1 MOL      0.340478
    155 O20        -9.5010    0.1920    1.8100 o         1 MOL     -0.495738
    156 C51       -11.6630    0.2110   -0.6400 c3        1 MOL     -0.022207
    157 C52       -12.5270   -0.2850    0.5480 c3        1 MOL     -0.300108
    158 C53       -14.0750   -0.2470    0.2590 c         1 MOL      0.719785
    159 O21       -14.7780   -1.0940    0.8300 o         1 MOL     -0.642007
    160 O22       -14.6070    0.6320   -0.4920 o         1 MOL     -0.642007
    161 H72        -9.8400    0.9280   -2.2110 hn        1 MOL      0.328615
    162 H73        -9.9450   -1.0900   -0.1560 h1        1 MOL      0.034198
    163 H74       -11.9750   -0.4110   -1.4710 hc        1 MOL      0.026649
    164 H75       -11.8300    1.2660   -0.8840 hc        1 MOL      0.026649
    165 H76       -12.3220    0.3330    1.4110 hc        1 MOL      0.089562
    166 H77       -12.1820   -1.3030    0.7040 hc        1 MOL      0.089562
    167 N15        -9.2800    2.1030    0.5160 n         1 MOL     -0.165473
    168 C54        -8.6100    2.9930    1.4900 c3        1 MOL     -0.465535
    169 H78        -9.3320    3.3200    2.2380 h1        1 MOL      0.174731
    170 H79        -7.8010    2.4520    1.9800 h1        1 MOL      0.174731
    171 H80        -8.2060    3.8620    0.9710 h1        1 MOL      0.174731
    172 H81        -9.5360    2.4810   -0.3820 hn        1 MOL      0.239897
    173 Ca1         2.3260    0.4930   -1.0790 Ca        1 MOL      1.759613
    174 O23         0.6370   -1.6440   -1.2690 oh        1 MOL     -0.879004
    175 H82        -0.0520   -2.0130   -0.7170 ho        1 MOL      0.427620
    176 H83         0.5780   -2.1480   -2.0840 ho        1 MOL      0.427620
    177 O24        -0.7000    0.9210   -1.8990 oh        1 MOL     -0.879004
    178 H84        -1.2460    0.1880   -2.2000 ho        1 MOL      0.427620
    179 H85        -1.0140    1.6750   -2.3990 ho        1 MOL      0.427620
    180 O25         2.1760    2.1640   -3.0090 oh        1 MOL     -0.879004
    181 H86         1.2990    2.5430   -3.0500 ho        1 MOL      0.427620
    182 H87         2.6370    2.5680   -3.7460 ho        1 MOL      0.427620
@<TRIPOS>BOND
     1    1    2 1   
     2    1    4 1   
     3    1    5 1   
     4    1    6 1   
     5    2    3 2   
     6    2    7 1   
     7    7    8 1   
     8    7   15 1   
     9    8    9 1   
    10    8   11 1   
    11    8   16 1   
    12    9   10 2   
    13    9   19 1   
    14   11   12 1   
    15   11   17 1   
    16   11   18 1   
    17   12   13 1   
    18   12   14 1   
    19   19   20 1   
    20   19   28 1   
    21   20   21 1   
    22   20   23 1   
    23   20   29 1   
    24   21   22 2   
    25   21   41 1   
    26   23   24 1   
    27   23   30 1   
    28   23   31 1   
    29   24   25 1   
    30   24   32 1   
    31   24   33 1   
    32   25   26 1   
    33   25   34 1   
    34   25   35 1   
    35   26   27 1   
    36   26   36 1   
    37   26   37 1   
    38   27   38 1   
    39   27   39 1   
    40   27   40 1   
    41   41   42 1   
    42   41   49 1   
    43   42   43 1   
    44   42   45 1   
    45   42   50 1   
    46   43   44 2   
    47   43   53 1   
    48   45   46 1   
    49   45   51 1   
    50   45   52 1   
    51   46   47 1   
    52   46   48 1   
    53   53   54 1   
    54   53   57 1   
    55   54   55 1   
    56   54   58 1   
    57   54   59 1   
    58   55   56 2   
    59   55   60 1   
    60   60   61 1   
    61   60   68 1   
    62   61   62 1   
    63   61   64 1   
    64   61   69 1   
    65   62   63 2   
    66   62   74 1   
    67   64   65 1   
    68   64   70 1   
    69   64   71 1   
    70   65   66 1   
    71   65   67 2   
    72   66   72 1   
    73   66   73 1   
    74   74   75 1   
    75   74   78 1   
    76   75   76 1   
    77   75   79 1   
    78   75   80 1   
    79   76   77 2   
    80   76   81 1   
    81   81   82 1   
    82   81   93 1   
    83   82   83 1   
    84   82   85 1   
    85   82   94 1   
    86   83   84 2   
    87   83  102 1   
    88   85   86 1   
    89   85   95 1   
    90   85   96 1   
    91   86   87 ar  
    92   86   88 ar  
    93   87   89 ar  
    94   87   97 1   
    95   88   90 ar  
    96   88   98 1   
    97   89   91 ar  
    98   89   99 1   
    99   90   91 ar  
   100   90  100 1   
   101   91   92 1   
   102   92  101 1   
   103  102  103 1   
   104  102  110 1   
   105  103  104 1   
   106  103  106 1   
   107  103  111 1   
   108  104  105 2   
   109  104  121 1   
   110  106  107 1   
   111  106  108 1   
   112  106  112 1   
   113  107  109 1   
   114  107  113 1   
   115  107  114 1   
   116  108  115 1   
   117  108  116 1   
   118  108  117 1   
   119  109  118 1   
   120  109  119 1   
   121  109  120 1   
   122  121  122 1   
   123  121  127 1   
   124  122  123 1   
   125  122  125 1   
   126  122  128 1   
   127  123  124 2   
   128  123  132 1   
   129  125  126 1   
   130  125  129 1   
   131  125  130 1   
   132  126  131 1   
   133  132  133 1   
   134  132  137 1   
   135  133  134 1   
   136  133  136 1   
   137  133  138 1   
   138  134  135 2   
   139  134  142 1   
   140  136  139 1   
   141  136  140 1   
   142  136  141 1   
   143  142  143 1   
   144  142  147 1   
   145  143  144 1   
   146  143  146 1   
   147  143  148 1   
   148  144  145 2   
   149  144  152 1   
   150  146  149 1   
   151  146  150 1   
   152  146  151 1   
   153  152  153 1   
   154  152  161 1   
   155  153  154 1   
   156  153  156 1   
   157  153  162 1   
   158  154  155 2   
   159  154  167 1   
   160  156  157 1   
   161  156  163 1   
   162  156  164 1   
   163  157  158 1   
   164  157  165 1   
   165  157  166 1   
   166  158  159 1   
   167  158  160 1   
   168  167  168 1   
   169  167  172 1   
   170  168  169 1   
   171  168  170 1   
   172  168  171 1   
   173  174  175 1   
   174  174  176 1   
   175  177  178 1   
   176  177  179 1   
   177  180  181 1   
   178  180  182 1   
@<TRIPOS>SUBSTRUCTURE
     1 MOL         1 TEMP              0 ****  ****    0 ROOT
