@<TRIPOS>MOLECULE
MOL
  181   177     1     0     0
SMALL
resp


@<TRIPOS>ATOM
      1 C1          4.3900   -1.8250    2.6670 c3        1 MOL     -0.351506
      2 C2          5.6730   -1.0530    2.3810 c         1 MOL      0.576112
      3 O1          5.6850    0.1360    2.0050 o         1 MOL     -0.600564
      4 H1          4.0820   -2.3630    1.7700 hc        1 MOL      0.102044
      5 H2          4.5660   -2.5370    3.4740 hc        1 MOL      0.102044
      6 H3          3.6050   -1.1290    2.9610 hc        1 MOL      0.102044
      7 N1          6.7910   -1.7370    2.3650 n         1 MOL     -0.420415
      8 C3          8.2230   -1.2500    2.2270 c3        1 MOL      0.187943
      9 C4          8.6190   -1.0370    0.7530 c         1 MOL      0.627760
     10 O2          8.7720   -2.0350    0.0150 o         1 MOL     -0.583308
     11 C5          9.1490   -2.1020    3.0670 c3        1 MOL     -0.476395
     12 C6         10.5660   -1.5560    3.1550 c         1 MOL      0.862163
     13 O3         10.9830   -0.6870    2.4090 o         1 MOL     -0.755921
     14 O4         11.3380   -1.9770    4.0060 o         1 MOL     -0.755921
     15 H4          6.7420   -2.6740    2.7310 hn        1 MOL      0.260509
     16 H5          8.2010   -0.2930    2.7380 h1        1 MOL      0.040405
     17 H6          9.2870   -3.0950    2.6190 hc        1 MOL      0.082341
     18 H7          8.6590   -2.2500    4.0310 hc        1 MOL      0.082341
     19 N2          8.5940    0.1930    0.3840 n         1 MOL     -0.474361
     20 C7          8.7850    0.6650   -0.9370 c3        1 MOL      0.293571
     21 C8          7.4970    0.4580   -1.7660 c         1 MOL      0.482139
     22 O5          7.5510    0.3150   -3.0140 o         1 MOL     -0.550865
     23 C9          9.2260    2.1190   -0.9670 c3        1 MOL     -0.254774
     24 H8          8.2580    0.8880    1.0420 hn        1 MOL      0.239475
     25 H9          9.5620    0.0530   -1.3940 h1        1 MOL      0.041913
     26 H10         8.4840    2.8380   -0.6150 hc        1 MOL      0.061730
     27 H11        10.1500    2.2580   -0.4020 hc        1 MOL      0.061730
     28 H12         9.4740    2.3370   -2.0120 hc        1 MOL      0.061730
     29 N3          6.3430    0.3730   -1.0750 n         1 MOL     -0.673079
     30 C10         5.2110   -0.4280   -1.4410 c3        1 MOL      0.043565
     31 C11         4.4510    0.1400   -2.6300 c         1 MOL      0.646596
     32 O6          3.5210   -0.4520   -3.1980 o         1 MOL     -0.585747
     33 C12         5.5090   -1.8730   -1.4090 c3        1 MOL      0.117001
     34 C13         4.1700   -2.6160   -1.3850 c         1 MOL      0.620353
     35 O7          4.0490   -3.8020   -1.8580 o         1 MOL     -0.751776
     36 O8          3.1800   -2.1240   -0.8260 o         1 MOL     -0.751776
     37 H13         6.3750    0.4530   -0.0640 hn        1 MOL      0.346075
     38 H14         4.5510   -0.2310   -0.6030 h1        1 MOL      0.087249
     39 H15         6.0730   -2.2930   -0.5760 hc        1 MOL     -0.003739
     40 H16         6.0140   -2.1780   -2.3290 hc        1 MOL     -0.003739
     41 N4          4.6680    1.4010   -3.0000 n         1 MOL     -0.349385
     42 C14         4.1590    2.0540   -4.1630 c3        1 MOL     -0.104232
     43 C15         2.8800    2.8400   -4.0710 c         1 MOL      0.639438
     44 O9          2.6970    3.8190   -4.8090 o         1 MOL     -0.636224
     45 H17         5.3420    1.9100   -2.4290 hn        1 MOL      0.277676
     46 H18         4.0560    1.3900   -5.0190 h1        1 MOL      0.084278
     47 H19         4.9070    2.7800   -4.4720 h1        1 MOL      0.084278
     48 N5          1.8890    2.4570   -3.2790 n         1 MOL     -0.435612
     49 C16         0.6240    3.2530   -3.2800 c3        1 MOL     -0.046963
     50 C17         0.9200    4.3920   -2.3000 c         1 MOL      0.489845
     51 O10         1.5700    4.1600   -1.2900 o         1 MOL     -0.498411
     52 C18        -0.4570    2.2790   -2.7840 c3        1 MOL     -0.038438
     53 C19        -1.8760    2.8210   -2.7680 c         1 MOL      0.526252
     54 N6         -2.4450    2.9140   -3.9500 n         1 MOL     -0.794367
     55 O11        -2.4200    2.9470   -1.7030 o         1 MOL     -0.498293
     56 H20         1.9980    1.6920   -2.6290 hn        1 MOL      0.242559
     57 H21         0.3630    3.5920   -4.2800 h1        1 MOL      0.074174
     58 H22        -0.1400    2.1150   -1.7460 hc        1 MOL      0.082894
     59 H23        -0.3880    1.3240   -3.3010 hc        1 MOL      0.082894
     60 H24        -1.8980    2.8210   -4.7930 hn        1 MOL      0.366758
     61 H25        -3.4420    3.0520   -4.0240 hn        1 MOL      0.366758
     62 N7          0.4600    5.6120   -2.5970 n         1 MOL     -0.224439
     63 C20         0.3440    6.7210   -1.7090 c3        1 MOL     -0.156917
     64 C21        -0.9340    6.7030   -0.8520 c         1 MOL      0.552604
     65 O12        -2.0580    6.6060   -1.3360 o         1 MOL     -0.508954
     66 H26         0.0550    5.7090   -3.5240 hn        1 MOL      0.226969
     67 H27         0.3840    7.6270   -2.3050 h1        1 MOL      0.076383
     68 H28         1.1990    6.7300   -1.0320 h1        1 MOL      0.076383
     69 N8         -0.7170    6.8150    0.4650 n         1 MOL     -0.329257
     70 C22        -1.8160    7.0270    1.4430 c3        1 MOL     -0.415287
     71 C23        -2.4630    5.7420    1.8910 c         1 MOL      0.615266
     72 O13        -3.6350    5.8070    2.3020 o         1 MOL     -0.574583
     73 C24        -1.3250    7.9570    2.6730 c3        1 MOL      0.421105
     74 C25        -0.0990    7.4950    3.4540 c3        1 MOL     -0.337815
     75 O14        -1.0320    9.2550    2.2330 oh        1 MOL     -0.618794
     76 H29         0.2300    6.8470    0.7920 hn        1 MOL      0.252167
     77 H30        -2.4960    7.6670    0.8780 h1        1 MOL      0.204966
     78 H31        -2.1490    8.0040    3.3920 h1        1 MOL      0.063592
     79 H32        -0.2060    9.2600    1.7510 ho        1 MOL      0.379714
     80 H33        -0.2990    6.5710    3.9970 hc        1 MOL      0.082140
     81 H34         0.8070    7.2980    2.8760 hc        1 MOL      0.082140
     82 H35         0.1560    8.2620    4.1750 hc        1 MOL      0.082140
     83 N9         -1.8050    4.5660    1.7830 n         1 MOL     -0.195353
     84 C26        -2.0420    3.2330    2.3130 c3        1 MOL     -0.245689
     85 C27        -1.4510    2.2250    1.2900 c         1 MOL      0.438336
     86 O15        -0.3370    2.2690    0.7780 o         1 MOL     -0.438456
     87 C28        -1.4710    3.0670    3.7020 c3        1 MOL      0.272949
     88 C29         0.0730    3.3960    3.8290 c3        1 MOL      0.049148
     89 C30        -2.2440    3.8930    4.6620 c3        1 MOL     -0.247907
     90 C31         0.6420    3.0330    5.1530 c3        1 MOL     -0.038715
     91 H36        -0.9240    4.6460    1.2990 hn        1 MOL      0.162617
     92 H37        -3.1110    3.0570    2.3260 h1        1 MOL      0.134659
     93 H38        -1.6900    2.0170    3.8980 hc        1 MOL     -0.028381
     94 H39         0.2100    4.4800    3.7900 hc        1 MOL      0.015434
     95 H40         0.5820    2.9030    3.0000 hc        1 MOL      0.015434
     96 H41        -3.3150    3.7300    4.5190 hc        1 MOL      0.045229
     97 H42        -1.9740    3.6010    5.6750 hc        1 MOL      0.045229
     98 H43        -2.1150    4.9680    4.5050 hc        1 MOL      0.045229
     99 H44         1.7310    2.9710    5.1520 hc        1 MOL     -0.003572
    100 H45         0.4280    3.8700    5.8120 hc        1 MOL     -0.003572
    101 H46         0.1450    2.1440    5.5490 hc        1 MOL     -0.003572
    102 N10        -2.2200    1.1490    1.2210 n         1 MOL     -0.432485
    103 C32        -1.9040   -0.0020    0.4470 c3        1 MOL      0.378420
    104 C33        -3.2230   -0.6330   -0.2300 c         1 MOL      0.303245
    105 O16        -3.2700   -1.8350   -0.4750 o         1 MOL     -0.378105
    106 C34        -1.0200   -1.0780    1.2090 c3        1 MOL     -0.066343
    107 C35        -0.4070   -2.1460    0.2840 c         1 MOL      0.596679
    108 O17        -0.1720   -1.8940   -0.9170 o         1 MOL     -0.658975
    109 O18        -0.0040   -3.2410    0.7960 o         1 MOL     -0.658975
    110 H47        -3.1660    1.2260    1.5780 hn        1 MOL      0.222246
    111 H48        -1.2460    0.3200   -0.3600 h1        1 MOL     -0.078211
    112 H49        -1.6320   -1.6270    1.9280 hc        1 MOL      0.009546
    113 H50        -0.2540   -0.5860    1.8120 hc        1 MOL      0.009546
    114 N11        -4.2130    0.2500   -0.4150 n         1 MOL     -0.280881
    115 C36        -5.6390   -0.0980   -0.7700 c3        1 MOL      0.063673
    116 C37        -6.1620   -1.1660    0.2230 c         1 MOL      0.383522
    117 O19        -5.9290   -1.0670    1.4170 o         1 MOL     -0.526278
    118 C38        -6.4350    1.1730   -0.7850 c3        1 MOL     -0.172996
    119 C39        -7.9040    0.9670   -1.2240 ca        1 MOL     -0.016469
    120 C40        -8.2930    0.8250   -2.5380 ca        1 MOL     -0.093140
    121 C41        -8.8850    0.8770   -0.1770 ca        1 MOL     -0.093140
    122 C42        -9.5070    0.4010   -2.9390 ca        1 MOL     -0.143024
    123 C43       -10.1790    0.4250   -0.5640 ca        1 MOL     -0.143024
    124 C44       -10.4930    0.1740   -1.9330 ca        1 MOL     -0.110983
    125 H51        -3.9760    1.2200   -0.2340 hn        1 MOL      0.221026
    126 H52        -5.6120   -0.5540   -1.7560 h1        1 MOL      0.045333
    127 H53        -5.9380    1.8490   -1.4800 hc        1 MOL      0.100954
    128 H54        -6.4050    1.6620    0.1910 hc        1 MOL      0.100954
    129 H55        -7.6140    0.9080   -3.3720 ha        1 MOL      0.121346
    130 H56        -8.6380    1.0640    0.8510 ha        1 MOL      0.121346
    131 H57        -9.7610    0.2660   -3.9780 ha        1 MOL      0.118873
    132 H58       -10.9080    0.1740    0.1920 ha        1 MOL      0.118873
    133 H59       -11.4510   -0.1950   -2.2660 ha        1 MOL      0.104703
    134 N12        -6.7790   -2.2470   -0.2290 n         1 MOL     -0.149809
    135 C45        -7.2890   -3.3190    0.5860 c3        1 MOL      0.206174
    136 C46        -6.2500   -4.1500    1.4620 c         1 MOL      0.249693
    137 O20        -6.6060   -4.8200    2.4400 o         1 MOL     -0.504829
    138 C47        -8.0870   -4.2320   -0.3260 c3        1 MOL     -0.054076
    139 C48        -8.5120   -3.3320   -1.4840 c3        1 MOL     -0.042559
    140 C49        -7.3270   -2.4350   -1.5640 c3        1 MOL      0.127851
    141 H60        -7.9320   -2.8870    1.3630 h1        1 MOL      0.017918
    142 H61        -7.4630   -5.0700   -0.6410 hc        1 MOL      0.027495
    143 H62        -8.9250   -4.6330    0.2380 hc        1 MOL      0.027495
    144 H63        -8.7220   -3.8660   -2.4070 hc        1 MOL      0.016794
    145 H64        -9.4570   -2.8290   -1.2590 hc        1 MOL      0.016794
    146 H65        -6.5900   -2.8510   -2.2440 h1        1 MOL     -0.002360
    147 H66        -7.6570   -1.4980   -2.0150 h1        1 MOL     -0.002360
    148 N13        -4.9330   -4.1150    1.1280 n         1 MOL     -0.139209
    149 C50        -3.9850   -4.8440    1.8870 c3        1 MOL     -0.027149
    150 C51        -3.7130   -4.2940    3.3040 c         1 MOL      0.430799
    151 O21        -3.4120   -5.1250    4.1680 o         1 MOL     -0.545748
    152 C52        -2.6820   -4.8860    1.0160 c3        1 MOL     -0.010592
    153 C53        -2.7590   -5.3940   -0.4300 c3        1 MOL     -0.079039
    154 C54        -1.3460   -5.4150   -0.9950 c         1 MOL      0.664161
    155 O22        -0.3650   -5.8530   -0.3240 o         1 MOL     -0.737913
    156 O23        -1.0660   -4.9340   -2.0590 o         1 MOL     -0.737913
    157 H67        -4.6070   -3.6850    0.2800 hn        1 MOL      0.132952
    158 H68        -4.3040   -5.8850    1.9700 h1        1 MOL      0.080184
    159 H69        -1.9990   -5.5730    1.5220 hc        1 MOL      0.012712
    160 H70        -2.3810   -3.8410    0.9460 hc        1 MOL      0.012712
    161 H71        -3.4790   -4.7820   -0.9710 hc        1 MOL      0.004008
    162 H72        -3.1480   -6.4110   -0.5020 hc        1 MOL      0.004008
    163 N14        -3.8880   -3.0080    3.5540 n         1 MOL     -0.055269
    164 C55        -3.8100   -2.3820    4.8590 c3        1 MOL     -0.472182
    165 H73        -2.7840   -2.4280    5.2230 h1        1 MOL      0.150351
    166 H74        -4.1230   -1.3400    4.7820 h1        1 MOL      0.150351
    167 H75        -4.4660   -2.9060    5.5540 h1        1 MOL      0.150351
    168 H76        -4.1570   -2.3580    2.8250 hn        1 MOL      0.193495
    169 Ca1         1.5320   -4.0910   -1.1420 Ca        1 MOL      1.771072
    170 O24         2.6780   -5.0000    1.0840 oh        1 MOL     -0.825091
    171 H77         2.4020   -5.1160    1.9930 ho        1 MOL      0.403418
    172 H78         3.4300   -5.5770    0.9890 ho        1 MOL      0.403418
    173 O25         2.8620   -6.5280   -1.3580 oh        1 MOL     -0.825091
    174 H79         3.2420   -7.1170   -0.7060 ho        1 MOL      0.403418
    175 H80         2.8730   -7.0300   -2.1700 ho        1 MOL      0.403418
    176 O26         1.7040   -5.0520   -3.8190 oh        1 MOL     -0.825091
    177 H81         1.1140   -4.9520   -4.5610 ho        1 MOL      0.403418
    178 H82         2.5430   -5.3210   -4.2170 ho        1 MOL      0.403418
    179 O27         1.2370   -2.0000   -3.1080 oh        1 MOL     -0.825091
    180 H83         2.0430   -1.4970   -3.1980 ho        1 MOL      0.403418
    181 H84         0.8100   -1.6220   -2.3390 ho        1 MOL      0.403418
@<TRIPOS>BOND
     1    1    2 1   
     2    1    4 1   
     3    1    5 1   
     4    1    6 1   
     5    2    3 2   
     6    2    7 1   
     7    7    8 1   
     8    7   15 1   
     9    8    9 1   
    10    8   11 1   
    11    8   16 1   
    12    9   10 2   
    13    9   19 1   
    14   11   12 1   
    15   11   17 1   
    16   11   18 1   
    17   12   13 1   
    18   12   14 1   
    19   19   20 1   
    20   19   24 1   
    21   20   21 1   
    22   20   23 1   
    23   20   25 1   
    24   21   22 2   
    25   21   29 1   
    26   23   26 1   
    27   23   27 1   
    28   23   28 1   
    29   29   30 1   
    30   29   37 1   
    31   30   31 1   
    32   30   33 1   
    33   30   38 1   
    34   31   32 2   
    35   31   41 1   
    36   33   34 1   
    37   33   39 1   
    38   33   40 1   
    39   34   35 1   
    40   34   36 1   
    41   41   42 1   
    42   41   45 1   
    43   42   43 1   
    44   42   46 1   
    45   42   47 1   
    46   43   44 2   
    47   43   48 1   
    48   48   49 1   
    49   48   56 1   
    50   49   50 1   
    51   49   52 1   
    52   49   57 1   
    53   50   51 2   
    54   50   62 1   
    55   52   53 1   
    56   52   58 1   
    57   52   59 1   
    58   53   54 1   
    59   53   55 2   
    60   54   60 1   
    61   54   61 1   
    62   62   63 1   
    63   62   66 1   
    64   63   64 1   
    65   63   67 1   
    66   63   68 1   
    67   64   65 2   
    68   64   69 1   
    69   69   70 1   
    70   69   76 1   
    71   70   71 1   
    72   70   73 1   
    73   70   77 1   
    74   71   72 2   
    75   71   83 1   
    76   73   74 1   
    77   73   75 1   
    78   73   78 1   
    79   74   80 1   
    80   74   81 1   
    81   74   82 1   
    82   75   79 1   
    83   83   84 1   
    84   83   91 1   
    85   84   85 1   
    86   84   87 1   
    87   84   92 1   
    88   85   86 2   
    89   85  102 1   
    90   87   88 1   
    91   87   89 1   
    92   87   93 1   
    93   88   90 1   
    94   88   94 1   
    95   88   95 1   
    96   89   96 1   
    97   89   97 1   
    98   89   98 1   
    99   90   99 1   
   100   90  100 1   
   101   90  101 1   
   102  102  103 1   
   103  102  110 1   
   104  103  104 1   
   105  103  106 1   
   106  103  111 1   
   107  104  105 2   
   108  104  114 1   
   109  106  107 1   
   110  106  112 1   
   111  106  113 1   
   112  107  108 1   
   113  107  109 1   
   114  114  115 1   
   115  114  125 1   
   116  115  116 1   
   117  115  118 1   
   118  115  126 1   
   119  116  117 2   
   120  116  134 1   
   121  118  119 1   
   122  118  127 1   
   123  118  128 1   
   124  119  120 ar  
   125  119  121 ar  
   126  120  122 ar  
   127  120  129 1   
   128  121  123 ar  
   129  121  130 1   
   130  122  124 ar  
   131  122  131 1   
   132  123  124 ar  
   133  123  132 1   
   134  124  133 1   
   135  134  135 1   
   136  134  140 1   
   137  135  136 1   
   138  135  138 1   
   139  135  141 1   
   140  136  137 2   
   141  136  148 1   
   142  138  139 1   
   143  138  142 1   
   144  138  143 1   
   145  139  140 1   
   146  139  144 1   
   147  139  145 1   
   148  140  146 1   
   149  140  147 1   
   150  148  149 1   
   151  148  157 1   
   152  149  150 1   
   153  149  152 1   
   154  149  158 1   
   155  150  151 2   
   156  150  163 1   
   157  152  153 1   
   158  152  159 1   
   159  152  160 1   
   160  153  154 1   
   161  153  161 1   
   162  153  162 1   
   163  154  155 1   
   164  154  156 1   
   165  163  164 1   
   166  163  168 1   
   167  164  165 1   
   168  164  166 1   
   169  164  167 1   
   170  170  171 1   
   171  170  172 1   
   172  173  174 1   
   173  173  175 1   
   174  176  177 1   
   175  176  178 1   
   176  179  180 1   
   177  179  181 1   
@<TRIPOS>SUBSTRUCTURE
     1 MOL         1 TEMP              0 ****  ****    0 ROOT
