@<TRIPOS>MOLECULE
MOL
  175   173     1     0     0
SMALL
resp


@<TRIPOS>ATOM
      1 C1         -6.9790    7.8630    1.8390 c3        1 MOL     -0.350160
      2 C2         -7.7450    7.0060    0.7930 c         1 MOL      0.736252
      3 O1         -7.5930    7.3780   -0.3580 o         1 MOL     -0.592176
      4 H1         -5.9340    7.9490    1.5430 hc        1 MOL      0.076340
      5 H2         -7.4240    8.8570    1.8920 hc        1 MOL      0.076340
      6 H3         -7.0410    7.3850    2.8170 hc        1 MOL      0.076340
      7 N1         -8.5190    6.0020    1.1560 n         1 MOL     -0.650481
      8 C3         -9.1170    5.0830    0.2070 c3        1 MOL      0.359661
      9 C4         -8.1830    4.1930   -0.6590 c         1 MOL      0.373670
     10 O2         -8.6390    3.6820   -1.7240 o         1 MOL     -0.512496
     11 C5        -10.1500    4.1930    0.9310 c3        1 MOL     -0.125860
     12 C6        -11.3010    3.6330    0.0800 c         1 MOL      0.718491
     13 O3        -11.6830    4.3160   -0.8930 o         1 MOL     -0.730095
     14 O4        -11.8550    2.5690    0.4970 o         1 MOL     -0.730095
     15 H4         -8.4120    5.6940    2.1180 hn        1 MOL      0.304723
     16 H5         -9.7230    5.6540   -0.4910 h1        1 MOL      0.015588
     17 H6        -10.6060    4.7270    1.7650 hc        1 MOL     -0.034629
     18 H7         -9.5340    3.3960    1.3480 hc        1 MOL     -0.034629
     19 N2         -6.9770    4.0090   -0.2010 n         1 MOL     -0.311742
     20 C7         -5.9610    3.2210   -0.7930 c3        1 MOL      0.209021
     21 C8         -5.0960    2.4490    0.1790 c         1 MOL      0.434062
     22 O5         -4.3650    3.0090    1.0260 o         1 MOL     -0.539639
     23 C9         -5.0540    4.2310   -1.6340 c3        1 MOL     -0.408060
     24 H8         -6.7140    4.4470    0.6760 hn        1 MOL      0.192006
     25 H9         -6.4490    2.5310   -1.4860 h1        1 MOL      0.037499
     26 H10        -4.2300    3.6360   -2.0240 hc        1 MOL      0.121326
     27 H11        -5.5900    4.8280   -2.3760 hc        1 MOL      0.121326
     28 H12        -4.6650    4.9940   -0.9750 hc        1 MOL      0.121326
     29 N3         -4.9510    1.1540    0.1370 n         1 MOL     -0.303539
     30 C10        -5.5740    0.1790   -0.8080 c3        1 MOL     -0.078701
     31 C11        -5.7260   -1.2100   -0.1890 c         1 MOL      0.495672
     32 O6         -4.9550   -1.5700    0.6990 o         1 MOL     -0.525513
     33 C12        -4.8120    0.0810   -2.0660 c3        1 MOL     -0.146389
     34 C13        -3.3650   -0.3340   -1.9560 c         1 MOL      0.676367
     35 O7         -2.9800   -1.5040   -1.9160 o         1 MOL     -0.690997
     36 O8         -2.5100    0.4870   -1.6720 o         1 MOL     -0.690997
     37 H13        -4.3590    0.7220    0.8320 hn        1 MOL      0.236246
     38 H14        -6.5880    0.5470   -1.0010 h1        1 MOL      0.075298
     39 H15        -4.7860    1.0550   -2.5530 hc        1 MOL      0.046670
     40 H16        -5.3100   -0.5800   -2.7720 hc        1 MOL      0.046670
     41 N4         -6.5940   -1.9870   -0.7360 n         1 MOL     -0.344286
     42 C14        -6.9010   -3.3010   -0.2510 c3        1 MOL      0.094585
     43 C15        -6.9290   -4.4010   -1.3600 c         1 MOL      0.498005
     44 O9         -7.9560   -4.7290   -1.9600 o         1 MOL     -0.545145
     45 H17        -7.0110   -1.5800   -1.5670 hn        1 MOL      0.299046
     46 H18        -7.9270   -3.2230    0.1090 h1        1 MOL      0.031934
     47 H19        -6.3050   -3.6630    0.5850 h1        1 MOL      0.031934
     48 N5         -5.7500   -4.9720   -1.6090 n         1 MOL     -0.496355
     49 C16        -4.4080   -4.5380   -1.2140 c3        1 MOL      0.195318
     50 C17        -4.0700   -5.1250    0.1210 c         1 MOL      0.538878
     51 O10        -4.2210   -6.3190    0.2810 o         1 MOL     -0.553699
     52 C18        -3.3840   -4.9270   -2.2400 c3        1 MOL     -0.147973
     53 C19        -1.9750   -4.3860   -1.9150 c         1 MOL      0.532070
     54 N6         -1.0700   -4.5560   -2.8370 n         1 MOL     -0.707407
     55 O11        -1.6420   -3.8370   -0.8650 o         1 MOL     -0.483322
     56 H20        -5.8310   -5.6840   -2.3070 hn        1 MOL      0.301110
     57 H21        -4.3110   -3.4610   -1.1260 h1        1 MOL     -0.037084
     58 H22        -3.4910   -4.5470   -3.2600 hc        1 MOL      0.051160
     59 H23        -3.4640   -6.0120   -2.2350 hc        1 MOL      0.051160
     60 H24        -1.2120   -4.9080   -3.7740 hn        1 MOL      0.344283
     61 H25        -0.1280   -4.2770   -2.6280 hn        1 MOL      0.344283
     62 N7         -3.6850   -4.3100    1.1440 n         1 MOL     -0.210888
     63 C20        -3.3220   -4.6890    2.5120 c3        1 MOL     -0.114335
     64 C21        -1.8700   -5.0080    2.8960 c         1 MOL      0.512516
     65 O12        -1.6650   -5.5940    3.9790 o         1 MOL     -0.589206
     66 H26        -3.8310   -3.3180    1.0890 hn        1 MOL      0.220527
     67 H27        -3.8500   -5.6210    2.7150 h1        1 MOL      0.062770
     68 H28        -3.7070   -3.9650    3.2330 h1        1 MOL      0.062770
     69 N8         -0.9220   -4.6810    2.0220 n         1 MOL     -0.036498
     70 C22         0.5520   -4.7860    2.1650 c3        1 MOL     -0.332611
     71 C23         1.2690   -3.4180    1.8820 c         1 MOL      0.431485
     72 O13         0.6800   -2.5690    1.2310 o         1 MOL     -0.457370
     73 C24         1.1350   -5.9350    1.2220 c3        1 MOL      0.414990
     74 C25         0.8670   -7.3150    1.8250 c3        1 MOL     -0.522705
     75 O14         0.5820   -5.9410   -0.0810 oh        1 MOL     -0.614311
     76 H29        -1.2190   -4.2200    1.1710 hn        1 MOL      0.083810
     77 H30         0.6850   -5.0600    3.2070 h1        1 MOL      0.122454
     78 H31         2.2090   -5.7950    1.0690 h1        1 MOL      0.019310
     79 H32         1.0390   -5.2300   -0.5330 ho        1 MOL      0.446337
     80 H33        -0.1840   -7.5340    2.0120 hc        1 MOL      0.130279
     81 H34         1.2470   -8.0190    1.0830 hc        1 MOL      0.130279
     82 H35         1.4270   -7.3720    2.7650 hc        1 MOL      0.130279
     83 N9          2.4290   -3.2490    2.4990 n         1 MOL     -0.308213
     84 C26         3.3730   -2.2030    2.2110 c3        1 MOL     -0.016460
     85 C27         4.1860   -2.7010    1.0300 c         1 MOL      0.248500
     86 O15         5.0430   -3.5860    1.1140 o         1 MOL     -0.564561
     87 C28         4.2220   -1.8020    3.4090 c3        1 MOL      0.128960
     88 C29         5.1150   -0.5190    3.0380 c3        1 MOL      0.285615
     89 C30         3.4040   -1.5610    4.6590 c3        1 MOL     -0.208656
     90 C31         5.9550   -0.0070    4.2100 c3        1 MOL     -0.316959
     91 H36         2.7110   -3.9130    3.2140 hn        1 MOL      0.277054
     92 H37         2.7840   -1.3620    1.8650 h1        1 MOL      0.042663
     93 H38         4.9000   -2.5940    3.7100 hc        1 MOL     -0.009814
     94 H39         4.4370    0.2740    2.7140 hc        1 MOL     -0.062462
     95 H40         5.7140   -0.7500    2.1540 hc        1 MOL     -0.062462
     96 H41         2.8240   -0.6430    4.5870 hc        1 MOL      0.045469
     97 H42         2.7830   -2.3730    5.0200 hc        1 MOL      0.045469
     98 H43         4.0940   -1.4270    5.4990 hc        1 MOL      0.045469
     99 H44         5.3100    0.3070    5.0390 hc        1 MOL      0.061387
    100 H45         6.7050   -0.7250    4.5170 hc        1 MOL      0.061387
    101 H46         6.4960    0.8510    3.8090 hc        1 MOL      0.061387
    102 N10         3.9410   -2.0900   -0.1000 n         1 MOL      0.081655
    103 C32         4.4190   -2.5160   -1.4810 c3        1 MOL      0.045934
    104 C33         5.4340   -1.5130   -1.9600 c         1 MOL      0.483944
    105 O16         5.9320   -1.6150   -3.0700 o         1 MOL     -0.533753
    106 C34         3.1760   -2.5220   -2.3780 c3        1 MOL     -0.226384
    107 C35         1.9750   -3.2730   -1.9820 c         1 MOL      0.876101
    108 O17         2.0870   -4.4040   -1.4650 o         1 MOL     -0.757401
    109 O18         0.8900   -2.7560   -2.1250 o         1 MOL     -0.757401
    110 H47         3.1390   -1.4820   -0.0910 hn        1 MOL      0.083763
    111 H48         4.8210   -3.5290   -1.4170 h1        1 MOL      0.090765
    112 H49         3.5690   -2.8820   -3.3180 hc        1 MOL      0.035938
    113 H50         2.8730   -1.4760   -2.5270 hc        1 MOL      0.035938
    114 N11         5.8720   -0.5630   -1.0640 n         1 MOL     -0.470568
    115 C36         6.9060    0.4700   -1.3480 c3        1 MOL      0.426206
    116 C37         6.5710    1.7950   -0.6630 c         1 MOL      0.292618
    117 O19         6.2400    1.7850    0.5160 o         1 MOL     -0.487061
    118 C38         8.2270   -0.0400   -0.8650 c3        1 MOL     -0.481454
    119 C39         9.3130    0.9280   -0.9910 ca        1 MOL      0.196393
    120 C40         9.9590    1.5770    0.1140 ca        1 MOL     -0.149776
    121 C41         9.8150    1.1380   -2.3380 ca        1 MOL     -0.149776
    122 C42        11.0900    2.2810   -0.1300 ca        1 MOL     -0.154737
    123 C43        11.0040    1.9130   -2.5400 ca        1 MOL     -0.154737
    124 C44        11.6380    2.5290   -1.4210 ca        1 MOL     -0.114405
    125 H51         5.3670   -0.6300   -0.1940 hn        1 MOL      0.173576
    126 H52         6.9490    0.5540   -2.4330 h1        1 MOL     -0.014430
    127 H53         8.4500   -0.8250   -1.5950 hc        1 MOL      0.159293
    128 H54         8.1840   -0.3480    0.1870 hc        1 MOL      0.159293
    129 H55         9.6330    1.3990    1.1250 ha        1 MOL      0.127115
    130 H56         9.4620    0.5800   -3.1900 ha        1 MOL      0.127115
    131 H57        11.5120    2.6880    0.7780 ha        1 MOL      0.114827
    132 H58        11.5130    1.9620   -3.4860 ha        1 MOL      0.114827
    133 H59        12.5590    3.0680   -1.5970 ha        1 MOL      0.108205
    134 N12         6.7830    2.9520   -1.3240 n         1 MOL     -0.016094
    135 C45         6.8100    4.2750   -0.6280 c3        1 MOL     -0.130419
    136 C46         5.3990    4.7300    0.0670 c         1 MOL      0.682852
    137 O20         5.3840    5.7520    0.6800 o         1 MOL     -0.565756
    138 C47         7.3790    5.2060   -1.7510 c3        1 MOL     -0.040609
    139 C48         6.9230    4.5780   -3.0680 c3        1 MOL     -0.040905
    140 C49         7.0420    3.0460   -2.7750 c3        1 MOL     -0.192089
    141 H60         7.5290    4.2530    0.1860 h1        1 MOL      0.082457
    142 H61         6.9810    6.2040   -1.5420 hc        1 MOL      0.044516
    143 H62         8.4550    5.2280   -1.6110 hc        1 MOL      0.044516
    144 H63         5.9110    4.8570   -3.3250 hc        1 MOL      0.037627
    145 H64         7.6300    4.9360   -3.8120 hc        1 MOL      0.037627
    146 H65         6.4820    2.3510   -3.4020 h1        1 MOL      0.098504
    147 H66         8.0970    2.8990   -3.0210 h1        1 MOL      0.098504
    148 N13         4.3470    3.9250    0.0720 n         1 MOL     -0.394415
    149 C50         3.1420    4.3700    0.6570 c3        1 MOL     -0.323806
    150 C51         3.0140    4.6470    2.1370 c         1 MOL      0.523869
    151 O21         1.9650    5.0020    2.6580 o         1 MOL     -0.514708
    152 C52         2.1200    3.2020    0.3200 c3        1 MOL     -0.023038
    153 C53         2.4050    1.8750    1.0530 c3        1 MOL      0.018980
    154 C54         1.4520    0.8180    0.4630 c         1 MOL      0.602596
    155 O22         1.9760   -0.1040   -0.2410 o         1 MOL     -0.693652
    156 O23         0.2290    0.9330    0.6230 o         1 MOL     -0.693652
    157 H67         4.5290    2.9670   -0.1920 hn        1 MOL      0.228222
    158 H68         2.7660    5.1980    0.0610 h1        1 MOL      0.184575
    159 H69         2.0570    2.9910   -0.7550 hc        1 MOL      0.059294
    160 H70         1.1370    3.5750    0.6090 hc        1 MOL      0.059294
    161 H71         2.2240    2.0700    2.1100 hc        1 MOL      0.019233
    162 H72         3.4460    1.5800    0.9280 hc        1 MOL      0.019233
    163 N14         4.1040    4.5550    2.8930 n         1 MOL     -0.175581
    164 C55         4.1410    4.9680    4.2940 c3        1 MOL     -0.140578
    165 H73         5.0710    5.5020    4.4900 h1        1 MOL      0.072061
    166 H74         3.2950    5.6240    4.5030 h1        1 MOL      0.072061
    167 H75         4.0860    4.0880    4.9340 h1        1 MOL      0.072061
    168 H76         5.0070    4.3940    2.4730 hn        1 MOL      0.207450
    169 Ca1        -0.5810   -1.1870   -0.8040 Ca        1 MOL      1.752764
    170 O24         0.1960    0.1950   -2.9590 oh        1 MOL     -0.925116
    171 H77         1.0620    0.6090   -3.0070 ho        1 MOL      0.439692
    172 H78        -0.2770    0.5390   -3.7120 ho        1 MOL      0.439692
    173 O25        -2.3760   -1.4460    1.0830 oh        1 MOL     -0.925116
    174 H79        -3.2810   -1.4310    0.7670 ho        1 MOL      0.439692
    175 H80        -2.3820   -0.8330    1.8210 ho        1 MOL      0.439692
@<TRIPOS>BOND
     1    1    2 1   
     2    1    4 1   
     3    1    5 1   
     4    1    6 1   
     5    2    3 2   
     6    2    7 1   
     7    7    8 1   
     8    7   15 1   
     9    8    9 1   
    10    8   11 1   
    11    8   16 1   
    12    9   10 2   
    13    9   19 1   
    14   11   12 1   
    15   11   17 1   
    16   11   18 1   
    17   12   13 1   
    18   12   14 1   
    19   19   20 1   
    20   19   24 1   
    21   20   21 1   
    22   20   23 1   
    23   20   25 1   
    24   21   22 2   
    25   21   29 1   
    26   23   26 1   
    27   23   27 1   
    28   23   28 1   
    29   29   30 1   
    30   29   37 1   
    31   30   31 1   
    32   30   33 1   
    33   30   38 1   
    34   31   32 2   
    35   31   41 1   
    36   33   34 1   
    37   33   39 1   
    38   33   40 1   
    39   34   35 1   
    40   34   36 1   
    41   41   42 1   
    42   41   45 1   
    43   42   43 1   
    44   42   46 1   
    45   42   47 1   
    46   43   44 2   
    47   43   48 1   
    48   48   49 1   
    49   48   56 1   
    50   49   50 1   
    51   49   52 1   
    52   49   57 1   
    53   50   51 2   
    54   50   62 1   
    55   52   53 1   
    56   52   58 1   
    57   52   59 1   
    58   53   54 1   
    59   53   55 2   
    60   54   60 1   
    61   54   61 1   
    62   62   63 1   
    63   62   66 1   
    64   63   64 1   
    65   63   67 1   
    66   63   68 1   
    67   64   65 2   
    68   64   69 1   
    69   69   70 1   
    70   69   76 1   
    71   70   71 1   
    72   70   73 1   
    73   70   77 1   
    74   71   72 2   
    75   71   83 1   
    76   73   74 1   
    77   73   75 1   
    78   73   78 1   
    79   74   80 1   
    80   74   81 1   
    81   74   82 1   
    82   75   79 1   
    83   83   84 1   
    84   83   91 1   
    85   84   85 1   
    86   84   87 1   
    87   84   92 1   
    88   85   86 2   
    89   85  102 1   
    90   87   88 1   
    91   87   89 1   
    92   87   93 1   
    93   88   90 1   
    94   88   94 1   
    95   88   95 1   
    96   89   96 1   
    97   89   97 1   
    98   89   98 1   
    99   90   99 1   
   100   90  100 1   
   101   90  101 1   
   102  102  103 1   
   103  102  110 1   
   104  103  104 1   
   105  103  106 1   
   106  103  111 1   
   107  104  105 2   
   108  104  114 1   
   109  106  107 1   
   110  106  112 1   
   111  106  113 1   
   112  107  108 1   
   113  107  109 1   
   114  114  115 1   
   115  114  125 1   
   116  115  116 1   
   117  115  118 1   
   118  115  126 1   
   119  116  117 2   
   120  116  134 1   
   121  118  119 1   
   122  118  127 1   
   123  118  128 1   
   124  119  120 ar  
   125  119  121 ar  
   126  120  122 ar  
   127  120  129 1   
   128  121  123 ar  
   129  121  130 1   
   130  122  124 ar  
   131  122  131 1   
   132  123  124 ar  
   133  123  132 1   
   134  124  133 1   
   135  134  135 1   
   136  134  140 1   
   137  135  136 1   
   138  135  138 1   
   139  135  141 1   
   140  136  137 2   
   141  136  148 1   
   142  138  139 1   
   143  138  142 1   
   144  138  143 1   
   145  139  140 1   
   146  139  144 1   
   147  139  145 1   
   148  140  146 1   
   149  140  147 1   
   150  148  149 1   
   151  148  157 1   
   152  149  150 1   
   153  149  152 1   
   154  149  158 1   
   155  150  151 2   
   156  150  163 1   
   157  152  153 1   
   158  152  159 1   
   159  152  160 1   
   160  153  154 1   
   161  153  161 1   
   162  153  162 1   
   163  154  155 1   
   164  154  156 1   
   165  163  164 1   
   166  163  168 1   
   167  164  165 1   
   168  164  166 1   
   169  164  167 1   
   170  170  171 1   
   171  170  172 1   
   172  173  174 1   
   173  173  175 1   
@<TRIPOS>SUBSTRUCTURE
     1 MOL         1 TEMP              0 ****  ****    0 ROOT
