@<TRIPOS>MOLECULE
MOL
  178   175     1     0     0
SMALL
resp


@<TRIPOS>ATOM
      1 C1        -10.2950    6.9390   -0.1930 c3        1 MOL     -0.274074
      2 C2         -9.7470    5.6120   -0.6670 c         1 MOL      0.533600
      3 O1         -8.7240    5.5710   -1.3840 o         1 MOL     -0.543599
      4 H1        -10.1420    7.6920   -0.9660 hc        1 MOL      0.060328
      5 H2        -11.3620    6.8400    0.0110 hc        1 MOL      0.060328
      6 H3         -9.7780    7.2420    0.7170 hc        1 MOL      0.060328
      7 N1        -10.2950    4.5230   -0.2580 n         1 MOL     -0.210498
      8 C3        -11.3890    4.3430    0.6810 c3        1 MOL     -0.041396
      9 C4        -12.5530    3.4120    0.1620 c         1 MOL      0.450680
     10 O2        -13.5100    3.0950    0.8620 o         1 MOL     -0.527521
     11 C5        -10.8160    3.7620    2.0210 c3        1 MOL     -0.196183
     12 C6         -9.8870    2.5940    1.8140 c         1 MOL      0.772539
     13 O3         -8.7570    2.6160    2.2130 o         1 MOL     -0.774636
     14 O4        -10.1800    1.5280    1.2980 o         1 MOL     -0.774636
     15 H4         -9.8690    3.7030   -0.6530 hn        1 MOL      0.247698
     16 H5        -11.8920    5.2870    0.8870 h1        1 MOL      0.080530
     17 H6        -11.6170    3.3800    2.6670 hc        1 MOL      0.053400
     18 H7        -10.2960    4.5230    2.6020 hc        1 MOL      0.053400
     19 N2        -12.3610    2.8980   -1.0670 n         1 MOL     -0.383355
     20 C7        -13.1160    1.7720   -1.6560 c3        1 MOL      0.419134
     21 C8        -12.1780    0.7000   -2.2500 c         1 MOL      0.354742
     22 O5        -12.5530    0.1380   -3.3120 o         1 MOL     -0.545922
     23 C9        -13.9160    2.4420   -2.8050 c3        1 MOL     -0.399259
     24 H8        -11.4290    3.0470   -1.4260 hn        1 MOL      0.130989
     25 H9        -13.6790    1.3030   -0.8360 h1        1 MOL     -0.017960
     26 H10       -14.5460    3.1270   -2.2420 hc        1 MOL      0.091992
     27 H11       -13.1950    3.0460   -3.3590 hc        1 MOL      0.091992
     28 H12       -14.4850    1.6960   -3.3540 hc        1 MOL      0.091992
     29 N3        -11.0970    0.4210   -1.5600 n         1 MOL     -0.237557
     30 C10       -10.0550   -0.4980   -1.9970 c3        1 MOL      0.145895
     31 C11        -9.5840   -1.4900   -0.9270 c         1 MOL      0.288698
     32 O6         -9.8190   -1.2180    0.2310 o         1 MOL     -0.489416
     33 C12        -8.8650    0.3810   -2.4340 c3        1 MOL     -0.170232
     34 C13        -8.5640    1.4480   -1.4100 c         1 MOL      0.749289
     35 O7         -7.9750    1.2100   -0.3480 o         1 MOL     -0.661265
     36 O8         -8.6560    2.6610   -1.7130 o         1 MOL     -0.661265
     37 H13       -10.9830    0.8430   -0.6430 hn        1 MOL      0.184623
     38 H14       -10.4260   -1.1050   -2.8310 h1        1 MOL      0.009399
     39 H15        -9.1980    0.8710   -3.3400 hc        1 MOL      0.038068
     40 H16        -8.0330   -0.2350   -2.7690 hc        1 MOL      0.038068
     41 N4         -8.9630   -2.6000   -1.3850 n         1 MOL     -0.158284
     42 C14        -8.2360   -3.5660   -0.5440 c3        1 MOL     -0.506980
     43 C15        -7.0340   -2.9370    0.1640 c         1 MOL      0.912542
     44 O9         -7.0040   -1.7020    0.3520 o         1 MOL     -0.738136
     45 H17        -9.0250   -2.6890   -2.3880 hn        1 MOL      0.257606
     46 H18        -7.7460   -4.2870   -1.1970 h1        1 MOL      0.183135
     47 H19        -8.8440   -3.9000    0.2910 h1        1 MOL      0.183135
     48 N5         -6.1110   -3.6960    0.6970 n         1 MOL     -0.636832
     49 C16        -5.0200   -3.2410    1.5450 c3        1 MOL      0.259654
     50 C17        -3.6660   -3.8010    1.1160 c         1 MOL      0.585093
     51 O10        -3.6350   -4.8770    0.5170 o         1 MOL     -0.535471
     52 C18        -5.3240   -3.5280    3.0100 c3        1 MOL     -0.163166
     53 C19        -6.7420   -3.0800    3.3390 c         1 MOL      0.698308
     54 N6         -7.5930   -3.9990    3.6870 n         1 MOL     -0.744416
     55 O11        -7.1190   -1.9040    3.2230 o         1 MOL     -0.678443
     56 H20        -6.2520   -4.6850    0.6260 hn        1 MOL      0.284391
     57 H21        -4.8580   -2.1780    1.3880 h1        1 MOL      0.061261
     58 H22        -4.6900   -3.1240    3.7930 hc        1 MOL      0.044581
     59 H23        -5.2470   -4.6110    3.1420 hc        1 MOL      0.044581
     60 H24        -7.2510   -4.8180    4.1760 hn        1 MOL      0.336463
     61 H25        -8.4970   -3.6610    3.9960 hn        1 MOL      0.336463
     62 N7         -2.5530   -3.1230    1.3930 n         1 MOL     -0.665857
     63 C20        -1.1970   -3.3800    0.8450 c3        1 MOL      0.123057
     64 C21        -0.9330   -2.7910   -0.5030 c         1 MOL      0.739935
     65 O12        -1.6560   -1.8950   -0.8540 o         1 MOL     -0.572438
     66 H26        -2.6400   -2.2070    1.7930 hn        1 MOL      0.329980
     67 H27        -1.1980   -4.4680    0.7930 h1        1 MOL      0.068627
     68 H28        -0.4840   -3.0340    1.5970 h1        1 MOL      0.068627
     69 N8          0.0850   -3.2630   -1.2050 n         1 MOL     -0.696798
     70 C22         1.0040   -4.3630   -0.9850 c3        1 MOL      0.003062
     71 C23         2.5460   -4.0940   -1.1180 c         1 MOL      0.506957
     72 O13         3.3170   -5.0500   -1.0250 o         1 MOL     -0.562955
     73 C24         0.6800   -5.4480   -2.0090 c3        1 MOL      0.273442
     74 C25        -0.6180   -6.1270   -1.7180 c3        1 MOL     -0.365050
     75 O14         0.6330   -4.9440   -3.2990 oh        1 MOL     -0.589880
     76 H29         0.2400   -2.8600   -2.1210 hn        1 MOL      0.388648
     77 H30         0.8800   -4.7520    0.0260 h1        1 MOL      0.072263
     78 H31         1.5050   -6.1560   -2.0550 h1        1 MOL      0.023418
     79 H32         0.6170   -5.7300   -3.8440 ho        1 MOL      0.405224
     80 H33        -1.4230   -5.4520   -2.0050 hc        1 MOL      0.091416
     81 H34        -0.7840   -7.0620   -2.2480 hc        1 MOL      0.091416
     82 H35        -0.7780   -6.3390   -0.6530 hc        1 MOL      0.091416
     83 N9          2.9220   -2.8330   -1.3820 n         1 MOL     -0.299260
     84 C26         4.3820   -2.4370   -1.5060 c3        1 MOL      0.011728
     85 C27         4.5660   -1.1690   -0.6240 c         1 MOL      0.372345
     86 O15         3.6120   -0.4870   -0.3370 o         1 MOL     -0.538332
     87 C28         4.6560   -1.9690   -3.0070 c3        1 MOL     -0.132927
     88 C29         4.2360   -3.1450   -3.9770 c3        1 MOL      0.263243
     89 C30         6.1710   -1.5950   -3.2510 c3        1 MOL     -0.079278
     90 C31         4.1550   -2.7200   -5.4560 c3        1 MOL     -0.335299
     91 H36         2.2450   -2.0970   -1.5090 hn        1 MOL      0.250283
     92 H37         5.0610   -3.2440   -1.2260 h1        1 MOL      0.098716
     93 H38         3.9490   -1.1670   -3.2210 hc        1 MOL      0.125756
     94 H39         3.2330   -3.5120   -3.8100 hc        1 MOL     -0.061738
     95 H40         4.9420   -3.9720   -3.9910 hc        1 MOL     -0.061738
     96 H41         6.5230   -1.3540   -4.2570 hc        1 MOL      0.030242
     97 H42         6.5230   -0.7970   -2.6110 hc        1 MOL      0.030242
     98 H43         6.8110   -2.4380   -2.9540 hc        1 MOL      0.030242
     99 H44         3.5610   -3.4450   -6.0180 hc        1 MOL      0.070737
    100 H45         3.5760   -1.7950   -5.5000 hc        1 MOL      0.070737
    101 H46         5.2070   -2.5850   -5.7340 hc        1 MOL      0.070737
    102 N10         5.7030   -0.8150   -0.0320 n         1 MOL     -0.155944
    103 C32         7.0860   -1.4870    0.0200 c3        1 MOL      0.066357
    104 C33         8.1720   -0.5070    0.2660 c         1 MOL      0.407338
    105 O16         7.9680    0.5640    0.7650 o         1 MOL     -0.477868
    106 C34         7.1190   -2.5020    1.1690 c3        1 MOL     -0.183600
    107 C35         6.5050   -1.9320    2.4670 c         1 MOL      0.665039
    108 O17         5.2780   -2.0690    2.6680 o         1 MOL     -0.700006
    109 O18         7.2660   -1.3830    3.3110 o         1 MOL     -0.700006
    110 H47         5.5790   -0.0600    0.6280 hn        1 MOL      0.266992
    111 H48         7.2830   -2.0220   -0.9060 h1        1 MOL      0.029016
    112 H49         8.1370   -2.8240    1.4090 hc        1 MOL      0.012100
    113 H50         6.6120   -3.4180    0.8590 hc        1 MOL      0.012100
    114 N11         9.3550   -1.0400    0.0730 n         1 MOL     -0.374801
    115 C36        10.6440   -0.4440    0.5270 c3        1 MOL      0.170815
    116 C37        11.4470    0.1040   -0.6690 c         1 MOL      0.190915
    117 O19        11.7430   -0.6900   -1.5860 o         1 MOL     -0.489619
    118 C38        11.3120   -1.4440    1.3940 c3        1 MOL     -0.022397
    119 C39        12.2450   -0.7200    2.3440 ca        1 MOL      0.110824
    120 C40        11.8200   -0.3840    3.6560 ca        1 MOL     -0.270443
    121 C41        13.5830   -0.3710    1.9700 ca        1 MOL     -0.270443
    122 C42        12.6110    0.4260    4.5340 ca        1 MOL     -0.017060
    123 C43        14.4540    0.2160    2.9070 ca        1 MOL     -0.017060
    124 C44        13.9670    0.5930    4.1680 ca        1 MOL     -0.201618
    125 H51         9.4650   -2.0090   -0.1830 hn        1 MOL      0.267386
    126 H52        10.4660    0.3950    1.1960 h1        1 MOL      0.097547
    127 H53        11.9030   -2.1750    0.8500 hc        1 MOL      0.025869
    128 H54        10.5670   -2.0390    1.9150 hc        1 MOL      0.025869
    129 H55        10.8720   -0.6990    4.0700 ha        1 MOL      0.168753
    130 H56        13.8850   -0.5390    0.9440 ha        1 MOL      0.168753
    131 H57        12.3090    0.6930    5.5350 ha        1 MOL      0.089973
    132 H58        15.4790    0.4350    2.6490 ha        1 MOL      0.089973
    133 H59        14.6460    1.0210    4.8990 ha        1 MOL      0.097359
    134 N12        11.8720    1.4080   -0.6740 n         1 MOL      0.088150
    135 C45        11.7170    2.3890    0.3510 c3        1 MOL     -0.269494
    136 C46        10.3420    3.1110    0.4570 c         1 MOL      0.630045
    137 O20         9.9810    3.4850    1.5010 o         1 MOL     -0.558779
    138 C47        12.8760    3.3600    0.2290 c3        1 MOL      0.147505
    139 C48        12.9320    3.4500   -1.2870 c3        1 MOL     -0.015677
    140 C49        12.5850    2.0330   -1.7150 c3        1 MOL     -0.160471
    141 H60        11.8110    1.8480    1.2950 h1        1 MOL      0.120395
    142 H61        12.7630    4.3410    0.6810 hc        1 MOL     -0.023293
    143 H62        13.7090    2.8660    0.7160 hc        1 MOL     -0.023293
    144 H63        12.0740    4.0240   -1.6470 hc        1 MOL      0.012941
    145 H64        13.9050    3.8520   -1.5840 hc        1 MOL      0.012941
    146 H65        12.1590    2.0010   -2.7170 h1        1 MOL      0.061962
    147 H66        13.5170    1.4700   -1.7240 h1        1 MOL      0.061962
    148 N13         9.5780    3.2280   -0.6560 n         1 MOL     -0.397609
    149 C50         8.2770    3.7880   -0.6420 c3        1 MOL      0.061828
    150 C51         8.2810    5.3180   -0.4310 c         1 MOL      0.431218
    151 O21         8.6780    6.1430   -1.2130 o         1 MOL     -0.570779
    152 C52         7.6430    3.3470   -2.0110 c3        1 MOL      0.087771
    153 C53         6.9430    1.9850   -1.9740 c3        1 MOL     -0.030818
    154 C54         6.1860    1.7730   -3.3530 c         1 MOL      0.703379
    155 O22         6.8550    1.4790   -4.3570 o         1 MOL     -0.702585
    156 O23         4.9690    2.0410   -3.4080 o         1 MOL     -0.702585
    157 H67         9.9610    2.8440   -1.5140 hn        1 MOL      0.308968
    158 H68         7.7280    3.2760    0.1410 h1        1 MOL      0.104913
    159 H69         8.4330    3.2810   -2.7580 hc        1 MOL     -0.019397
    160 H70         7.0190    4.1740   -2.3690 hc        1 MOL     -0.019397
    161 H71         6.2150    1.9690   -1.1640 hc        1 MOL     -0.053188
    162 H72         7.6980    1.2020   -1.8580 hc        1 MOL     -0.053188
    163 N14         7.8070    5.8280    0.7230 n         1 MOL     -0.304081
    164 C55         7.3110    5.1280    1.9350 c3        1 MOL     -0.159069
    165 H73         7.8400    4.1820    2.0490 h1        1 MOL      0.080192
    166 H74         7.4860    5.7500    2.8120 h1        1 MOL      0.080192
    167 H75         6.2420    4.9360    1.8320 h1        1 MOL      0.080192
    168 H76         7.7770    6.8320    0.8240 hn        1 MOL      0.249885
    169 Ca1        -8.0210    0.0510    1.9370 Ca        1 MOL      1.825165
    170 O24        -7.0340    0.8960    4.5340 oh        1 MOL     -0.832543
    171 H77        -6.4740    0.5670    5.2410 ho        1 MOL      0.410708
    172 H78        -7.5350    1.6010    4.9320 ho        1 MOL      0.410708
    173 O25        -5.3690    0.4170    2.1120 oh        1 MOL     -0.832543
    174 H79        -4.9650    0.9370    1.4230 ho        1 MOL      0.410708
    175 H80        -4.6380   -0.0330    2.5320 ho        1 MOL      0.410708
    176 O26       -10.0000   -1.1210    3.4690 oh        1 MOL     -0.832543
    177 H81       -10.2510   -2.0290    3.5820 ho        1 MOL      0.410708
    178 H82       -10.7010   -0.6210    3.8820 ho        1 MOL      0.410708
@<TRIPOS>BOND
     1    1    2 1   
     2    1    4 1   
     3    1    5 1   
     4    1    6 1   
     5    2    3 2   
     6    2    7 1   
     7    7    8 1   
     8    7   15 1   
     9    8    9 1   
    10    8   11 1   
    11    8   16 1   
    12    9   10 2   
    13    9   19 1   
    14   11   12 1   
    15   11   17 1   
    16   11   18 1   
    17   12   13 1   
    18   12   14 1   
    19   19   20 1   
    20   19   24 1   
    21   20   21 1   
    22   20   23 1   
    23   20   25 1   
    24   21   22 2   
    25   21   29 1   
    26   23   26 1   
    27   23   27 1   
    28   23   28 1   
    29   29   30 1   
    30   29   37 1   
    31   30   31 1   
    32   30   33 1   
    33   30   38 1   
    34   31   32 2   
    35   31   41 1   
    36   33   34 1   
    37   33   39 1   
    38   33   40 1   
    39   34   35 1   
    40   34   36 1   
    41   41   42 1   
    42   41   45 1   
    43   42   43 1   
    44   42   46 1   
    45   42   47 1   
    46   43   44 2   
    47   43   48 1   
    48   48   49 1   
    49   48   56 1   
    50   49   50 1   
    51   49   52 1   
    52   49   57 1   
    53   50   51 2   
    54   50   62 1   
    55   52   53 1   
    56   52   58 1   
    57   52   59 1   
    58   53   54 1   
    59   53   55 2   
    60   54   60 1   
    61   54   61 1   
    62   62   63 1   
    63   62   66 1   
    64   63   64 1   
    65   63   67 1   
    66   63   68 1   
    67   64   65 2   
    68   64   69 1   
    69   69   70 1   
    70   69   76 1   
    71   70   71 1   
    72   70   73 1   
    73   70   77 1   
    74   71   72 2   
    75   71   83 1   
    76   73   74 1   
    77   73   75 1   
    78   73   78 1   
    79   74   80 1   
    80   74   81 1   
    81   74   82 1   
    82   75   79 1   
    83   83   84 1   
    84   83   91 1   
    85   84   85 1   
    86   84   87 1   
    87   84   92 1   
    88   85   86 2   
    89   85  102 1   
    90   87   88 1   
    91   87   89 1   
    92   87   93 1   
    93   88   90 1   
    94   88   94 1   
    95   88   95 1   
    96   89   96 1   
    97   89   97 1   
    98   89   98 1   
    99   90   99 1   
   100   90  100 1   
   101   90  101 1   
   102  102  103 1   
   103  102  110 1   
   104  103  104 1   
   105  103  106 1   
   106  103  111 1   
   107  104  105 2   
   108  104  114 1   
   109  106  107 1   
   110  106  112 1   
   111  106  113 1   
   112  107  108 1   
   113  107  109 1   
   114  114  115 1   
   115  114  125 1   
   116  115  116 1   
   117  115  118 1   
   118  115  126 1   
   119  116  117 2   
   120  116  134 1   
   121  118  119 1   
   122  118  127 1   
   123  118  128 1   
   124  119  120 ar  
   125  119  121 ar  
   126  120  122 ar  
   127  120  129 1   
   128  121  123 ar  
   129  121  130 1   
   130  122  124 ar  
   131  122  131 1   
   132  123  124 ar  
   133  123  132 1   
   134  124  133 1   
   135  134  135 1   
   136  134  140 1   
   137  135  136 1   
   138  135  138 1   
   139  135  141 1   
   140  136  137 2   
   141  136  148 1   
   142  138  139 1   
   143  138  142 1   
   144  138  143 1   
   145  139  140 1   
   146  139  144 1   
   147  139  145 1   
   148  140  146 1   
   149  140  147 1   
   150  148  149 1   
   151  148  157 1   
   152  149  150 1   
   153  149  152 1   
   154  149  158 1   
   155  150  151 2   
   156  150  163 1   
   157  152  153 1   
   158  152  159 1   
   159  152  160 1   
   160  153  154 1   
   161  153  161 1   
   162  153  162 1   
   163  154  155 1   
   164  154  156 1   
   165  163  164 1   
   166  163  168 1   
   167  164  165 1   
   168  164  166 1   
   169  164  167 1   
   170  170  171 1   
   171  170  172 1   
   172  173  174 1   
   173  173  175 1   
   174  176  177 1   
   175  176  178 1   
@<TRIPOS>SUBSTRUCTURE
     1 MOL         1 TEMP              0 ****  ****    0 ROOT
