@<TRIPOS>MOLECULE
MOL
  198   191     1     0     0
SMALL
resp


@<TRIPOS>ATOM
      1 C1         -6.6080   -2.6840    4.9610 c3        1 MOL     -0.312991
      2 C2         -5.9650   -2.1010    3.6540 c         1 MOL      0.690228
      3 O1         -5.5880   -2.8370    2.7820 o         1 MOL     -0.584155
      4 H1         -6.4010   -2.0150    5.7970 hc        1 MOL      0.083918
      5 H2         -7.6860   -2.7740    4.8270 hc        1 MOL      0.083918
      6 H3         -6.1840   -3.6660    5.1690 hc        1 MOL      0.083918
      7 N1         -5.7730   -0.7630    3.4970 n         1 MOL     -0.513322
      8 C3         -5.2460   -0.1280    2.2990 c3        1 MOL      0.489177
      9 C4         -3.7240   -0.1590    2.1910 c         1 MOL      0.021447
     10 O2         -3.1950    0.5980    1.3690 o         1 MOL     -0.205168
     11 C5         -5.8210    1.2690    2.0870 c3        1 MOL     -0.249943
     12 C6         -7.3140    1.4270    2.3530 c         1 MOL      0.645861
     13 O3         -8.0670    1.7310    1.3840 o         1 MOL     -0.677932
     14 O4         -7.7480    1.2050    3.4760 o         1 MOL     -0.677932
     15 H4         -6.2250   -0.1340    4.1380 hn        1 MOL      0.236752
     16 H5         -5.7390   -0.6070    1.4550 h1        1 MOL      0.066165
     17 H6         -5.5210    1.8320    1.2040 hc        1 MOL     -0.000017
     18 H7         -5.2940    1.8400    2.8460 hc        1 MOL     -0.000017
     19 N2         -3.0550   -1.0770    2.8940 n         1 MOL     -0.151361
     20 C7         -1.6520   -1.0880    3.1420 c3        1 MOL      0.055736
     21 C8         -1.0310   -2.3640    2.4670 c         1 MOL      0.288054
     22 O5         -1.4370   -3.4590    2.7240 o         1 MOL     -0.464295
     23 C9         -1.3060   -0.9600    4.6490 c3        1 MOL     -0.218697
     24 C10        -2.0130    0.2260    5.3490 c3        1 MOL     -0.015781
     25 C11        -1.5440    1.6140    4.8290 c3        1 MOL     -0.142720
     26 C12        -0.0580    1.8690    5.2830 c3        1 MOL      0.143770
     27 N3          0.3870    3.2580    5.1460 n4        1 MOL     -0.487179
     28 H8         -3.5660   -1.7760    3.4000 hn        1 MOL      0.202826
     29 H9         -1.2560   -0.2130    2.6320 h1        1 MOL      0.299488
     30 H10        -0.2420   -0.7790    4.7700 hc        1 MOL      0.088183
     31 H11        -1.6010   -1.8670    5.1850 hc        1 MOL      0.088183
     32 H12        -1.8160    0.1790    6.4190 hc        1 MOL      0.019531
     33 H13        -3.0530    0.0060    5.1350 hc        1 MOL      0.019531
     34 H14        -2.1700    2.4230    5.2000 hc        1 MOL      0.057209
     35 H15        -1.5230    1.6100    3.7320 hc        1 MOL      0.057209
     36 H16         0.6560    1.2670    4.7340 hx        1 MOL      0.052322
     37 H17         0.1220    1.5530    6.3100 hx        1 MOL      0.052322
     38 H18         0.1570    3.6280    4.2260 hn        1 MOL      0.357448
     39 H19        -0.0230    3.8080    5.8880 hn        1 MOL      0.357448
     40 H20         1.3860    3.3340    5.2580 hn        1 MOL      0.357448
     41 N4          0.0360   -2.2720    1.6560 n         1 MOL     -0.239147
     42 C13         0.7340   -1.0980    1.0410 c3        1 MOL     -0.235378
     43 C14         1.2010    0.0850    1.9400 c         1 MOL      0.523493
     44 O6          0.5410    1.0850    2.0340 o         1 MOL     -0.534399
     45 C15         0.1630   -0.5960   -0.2860 c3        1 MOL      0.032923
     46 C16         0.0350   -1.6280   -1.3840 c         1 MOL      0.599971
     47 O7          0.5490   -2.7470   -1.2160 o         1 MOL     -0.682515
     48 O8         -0.4530   -1.2570   -2.5420 o         1 MOL     -0.682515
     49 H21         0.3990   -3.1790    1.3630 hn        1 MOL      0.217407
     50 H22         1.6820   -1.5230    0.7280 h1        1 MOL      0.084526
     51 H23         0.9030    0.0880   -0.7120 hc        1 MOL      0.023001
     52 H24        -0.6980    0.0570   -0.1530 hc        1 MOL      0.023001
     53 N5          2.3540    0.0090    2.5480 n         1 MOL     -0.370920
     54 C17         3.3600   -1.0890    2.3760 c3        1 MOL     -0.155687
     55 C18         4.6610   -0.9200    3.1800 c         1 MOL      0.560823
     56 O9          4.8060    0.0070    4.0490 o         1 MOL     -0.534503
     57 H25         2.6620    0.7770    3.1460 hn        1 MOL      0.267928
     58 H26         3.5800   -1.1570    1.3200 h1        1 MOL      0.126072
     59 H27         2.9460   -2.0760    2.5940 h1        1 MOL      0.126072
     60 N6          5.5410   -1.9670    3.2110 n         1 MOL     -0.475261
     61 C19         5.7200   -3.0460    2.2230 c3        1 MOL      0.029543
     62 C20         6.4330   -2.5500    0.9210 c         1 MOL      0.469488
     63 O10         7.0900   -1.5170    0.9800 o         1 MOL     -0.420673
     64 C21         6.5220   -4.2940    2.7980 c3        1 MOL     -0.232995
     65 C22         7.7250   -3.9340    3.6640 c         1 MOL      0.791372
     66 O11         8.8940   -4.0230    3.1770 o         1 MOL     -0.696426
     67 O12         7.6080   -3.6460    4.8440 o         1 MOL     -0.696426
     68 H28         6.2910   -1.9430    3.8860 hn        1 MOL      0.330589
     69 H29         4.7600   -3.4130    1.8950 h1        1 MOL      0.032061
     70 H30         6.8100   -4.8970    1.9410 hc        1 MOL      0.029801
     71 H31         5.8190   -4.9170    3.3540 hc        1 MOL      0.029801
     72 N7          6.2510   -3.2410   -0.1670 n         1 MOL     -0.317214
     73 C23         6.8180   -2.9550   -1.5250 c3        1 MOL     -0.227982
     74 C24         6.2620   -1.7440   -2.2250 c         1 MOL      0.541045
     75 O13         6.5810   -1.4570   -3.3520 o         1 MOL     -0.556094
     76 H32         5.5160   -3.9270   -0.2430 hn        1 MOL      0.241708
     77 H33         6.8520   -3.8360   -2.1670 h1        1 MOL      0.140421
     78 H34         7.8560   -2.6850   -1.3460 h1        1 MOL      0.140421
     79 N8          5.5430   -0.8900   -1.4730 n         1 MOL     -0.179420
     80 C25         5.0160    0.4360   -1.8920 c3        1 MOL     -0.150512
     81 C26         5.1910    1.4760   -0.8130 c         1 MOL      0.721615
     82 O14         5.1830    1.1650    0.3700 o         1 MOL     -0.494622
     83 C27         3.4940    0.3370   -2.2000 c3        1 MOL      0.400390
     84 C28         3.1390   -0.7640   -3.2190 c3        1 MOL      0.072308
     85 O15         3.0790    1.6360   -2.6070 oh        1 MOL     -0.633654
     86 H35         5.5740   -1.0880   -0.4900 hn        1 MOL     -0.014481
     87 H36         5.5430    0.7790   -2.7880 h1        1 MOL      0.115204
     88 H37         2.9270    0.1160   -1.2980 h1        1 MOL     -0.028001
     89 H38         2.2350    1.8370   -2.2020 ho        1 MOL      0.346329
     90 H39         2.3240   -0.5340   -3.8940 hc        1 MOL     -0.021396
     91 H40         4.0800   -0.9420   -3.7370 hc        1 MOL     -0.021396
     92 H41         2.9700   -1.6320   -2.5680 hc        1 MOL     -0.021396
     93 N9          5.4440    2.7250   -1.1780 n         1 MOL     -0.491720
     94 C29         5.7000    3.9880   -0.3900 c3        1 MOL     -0.254942
     95 C30         4.3840    4.6960   -0.0850 c         1 MOL      0.545580
     96 O16         4.3820    5.5790    0.7760 o         1 MOL     -0.576860
     97 C31         6.7900    4.8810   -0.9810 c3        1 MOL      0.135814
     98 C32         6.4400    5.5410   -2.3440 c3        1 MOL      0.317518
     99 C33         8.1480    4.0750   -0.9690 c3        1 MOL     -0.306791
    100 C34         7.4100    6.5270   -2.9210 c3        1 MOL     -0.267953
    101 H42         5.4060    2.8670   -2.1740 hn        1 MOL      0.266928
    102 H43         5.9750    3.6220    0.6030 h1        1 MOL      0.180255
    103 H44         6.9010    5.7960   -0.3900 hc        1 MOL      0.024478
    104 H45         5.4770    6.0450   -2.2500 hc        1 MOL     -0.071508
    105 H46         6.3410    4.6960   -3.0150 hc        1 MOL     -0.071508
    106 H47         8.9370    4.7880   -1.2330 hc        1 MOL      0.087787
    107 H48         8.2440    3.5250   -0.0390 hc        1 MOL      0.087787
    108 H49         8.2360    3.3520   -1.7780 hc        1 MOL      0.087787
    109 H50         6.9170    7.0000   -3.7610 hc        1 MOL      0.053992
    110 H51         7.6810    7.2040   -2.1140 hc        1 MOL      0.053992
    111 H52         8.2670    5.9490   -3.2650 hc        1 MOL      0.053992
    112 N10         3.3420    4.3000   -0.7220 n         1 MOL     -0.268251
    113 C35         2.0440    4.9800   -0.5910 c3        1 MOL      0.058009
    114 C36         0.9020    3.9460   -0.4260 c         1 MOL      0.527823
    115 O17         1.0820    2.8230   -0.8490 o         1 MOL     -0.413868
    116 C37         1.7220    5.8170   -1.8930 c3        1 MOL      0.256600
    117 C38         1.2700    4.9620   -3.1100 c3        1 MOL     -0.327465
    118 O18         2.7710    6.7300   -2.2950 oh        1 MOL     -0.565380
    119 H53         3.3960    3.3510   -1.0650 hn        1 MOL      0.115348
    120 H54         1.9450    5.7070    0.2100 h1        1 MOL      0.054518
    121 H55         0.8970    6.4930   -1.6670 h1        1 MOL      0.046314
    122 H56         3.2850    6.2790   -2.9630 ho        1 MOL      0.352574
    123 H57         0.8910    5.6420   -3.8770 hc        1 MOL      0.096054
    124 H58         2.0450    4.3310   -3.5350 hc        1 MOL      0.096054
    125 H59         0.3480    4.4660   -2.8010 hc        1 MOL      0.096054
    126 N11        -0.2540    4.3050    0.1660 n         1 MOL     -0.673104
    127 C39        -1.3890    3.4040    0.3990 c3        1 MOL      0.001936
    128 C40        -2.2460    3.1990   -0.8720 c         1 MOL      0.502394
    129 O19        -2.0870    3.9060   -1.8240 o         1 MOL     -0.553255
    130 C41        -2.2820    4.0460    1.4490 c3        1 MOL      0.499057
    131 C42        -3.0060    5.3650    1.0970 c3        1 MOL     -0.464789
    132 O20        -1.5340    4.2910    2.6040 oh        1 MOL     -0.735647
    133 H60        -0.2280    5.1960    0.6430 hn        1 MOL      0.322016
    134 H61        -1.0770    2.4280    0.7760 h1        1 MOL      0.146108
    135 H62        -3.0320    3.3170    1.7260 h1        1 MOL      0.050757
    136 H63        -1.1760    5.1800    2.5690 ho        1 MOL      0.408860
    137 H64        -4.0450    5.1300    0.8640 hc        1 MOL      0.116373
    138 H65        -2.8180    6.1390    1.8500 hc        1 MOL      0.116373
    139 H66        -2.5970    5.8540    0.2100 hc        1 MOL      0.116373
    140 N12        -3.2880    2.3540   -0.8960 n         1 MOL     -0.004365
    141 C43        -4.1870    1.9730   -2.0110 c3        1 MOL     -0.426513
    142 C44        -4.2500    0.4690   -2.2620 c         1 MOL      0.749561
    143 O21        -4.6600   -0.0150   -3.2950 o         1 MOL     -0.641956
    144 C45        -5.6380    2.5560   -1.8220 c3        1 MOL      0.069458
    145 C46        -6.4040    2.6150   -3.1350 c3        1 MOL     -0.124507
    146 C47        -7.7070    3.4280   -3.0250 c3        1 MOL     -0.217310
    147 C48        -7.5710    4.8580   -2.5570 c3        1 MOL      0.149188
    148 N13        -8.8950    5.4160   -2.1750 n4        1 MOL     -0.366657
    149 H67        -3.4350    1.8360   -0.0460 hn        1 MOL     -0.142621
    150 H68        -3.6630    2.3530   -2.8890 h1        1 MOL      0.167918
    151 H69        -5.5660    3.5450   -1.3630 hc        1 MOL      0.070879
    152 H70        -6.1830    1.9560   -1.1040 hc        1 MOL      0.070879
    153 H71        -6.6380    1.5960   -3.4380 hc        1 MOL      0.094754
    154 H72        -5.7200    3.1230   -3.8190 hc        1 MOL      0.094754
    155 H73        -8.2360    3.0010   -2.1720 hc        1 MOL      0.097118
    156 H74        -8.2240    3.3650   -3.9850 hc        1 MOL      0.097118
    157 H75        -7.2530    5.4510   -3.4150 hx        1 MOL      0.038054
    158 H76        -6.9270    5.0010   -1.6890 hx        1 MOL      0.038054
    159 H77        -9.2700    4.9670   -1.3490 hn        1 MOL      0.309915
    160 H78        -8.7300    6.3920   -1.9770 hn        1 MOL      0.309915
    161 H79        -9.5480    5.3180   -2.9420 hn        1 MOL      0.309915
    162 N14        -4.0500   -0.3730   -1.2430 n         1 MOL     -0.176287
    163 C49        -4.3010   -1.8610   -1.4600 c3        1 MOL     -0.440143
    164 C50        -5.7710   -2.2440   -1.5890 c         1 MOL      0.733606
    165 O22        -6.5450   -1.6490   -0.8030 o         1 MOL     -0.558863
    166 C51        -3.6450   -2.7110   -0.2900 c3        1 MOL      0.749950
    167 C52        -3.7140   -4.2440   -0.4050 c3        1 MOL     -0.307742
    168 C53        -3.0370   -4.6820   -1.6360 c         1 MOL      0.700032
    169 O23        -3.7080   -4.6750   -2.7360 o         1 MOL     -0.798702
    170 O24        -1.8160   -4.9640   -1.5630 o         1 MOL     -0.798702
    171 H80        -3.7680    0.0320   -0.3620 hn        1 MOL      0.059415
    172 H81        -3.7550   -2.2080   -2.3380 h1        1 MOL      0.143406
    173 H82        -4.2930   -2.4900    0.5570 hc        1 MOL     -0.175623
    174 H83        -2.6120   -2.4340   -0.0900 hc        1 MOL     -0.175623
    175 H84        -4.7530   -4.5800   -0.4450 hc        1 MOL      0.059737
    176 H85        -3.2090   -4.6600    0.4780 hc        1 MOL      0.059737
    177 N15        -6.1530   -3.0850   -2.6050 n         1 MOL     -0.470041
    178 C54        -7.4920   -3.5520   -2.7920 c3        1 MOL     -0.081797
    179 H86        -7.5250   -4.2270   -3.6470 h1        1 MOL      0.062774
    180 H87        -7.8210   -4.0810   -1.8980 h1        1 MOL      0.062774
    181 H88        -8.1510   -2.7030   -2.9750 h1        1 MOL      0.062774
    182 H89        -5.3720   -3.5640   -3.0360 hn        1 MOL      0.406884
    183 Ca1         0.5070   -5.2130   -2.2830 Ca        1 MOL      1.811387
    184 O25        -0.5580   -7.6490   -1.4240 oh        1 MOL     -0.896254
    185 H90        -0.7780   -8.5120   -1.0700 ho        1 MOL      0.438542
    186 H91        -1.3680   -7.3510   -1.8300 ho        1 MOL      0.438542
    187 O26        -1.6480   -6.2670   -3.7760 oh        1 MOL     -0.896254
    188 H92        -2.2610   -5.8090   -3.2010 ho        1 MOL      0.438542
    189 H93        -2.2010   -6.7830   -4.3610 ho        1 MOL      0.438542
    190 O27         1.4270   -6.4940   -4.3930 oh        1 MOL     -0.896254
    191 H94         2.2630   -6.9600   -4.4870 ho        1 MOL      0.438542
    192 H95         0.9430   -6.6980   -5.1830 ho        1 MOL      0.438542
    193 O28         0.1870   -3.2820   -4.2260 oh        1 MOL     -0.896254
    194 H96        -0.1620   -2.9750   -5.0560 ho        1 MOL      0.438542
    195 H97         0.0510   -2.5500   -3.6230 ho        1 MOL      0.438542
    196 O29         3.0620   -4.1870   -3.0900 oh        1 MOL     -0.896254
    197 H98         3.2500   -4.2420   -4.0290 ho        1 MOL      0.438542
    198 H99         3.7410   -4.7260   -2.6880 ho        1 MOL      0.438542
@<TRIPOS>BOND
     1    1    2 1   
     2    1    4 1   
     3    1    5 1   
     4    1    6 1   
     5    2    3 2   
     6    2    7 1   
     7    7    8 1   
     8    7   15 1   
     9    8    9 1   
    10    8   11 1   
    11    8   16 1   
    12    9   10 2   
    13    9   19 1   
    14   11   12 1   
    15   11   17 1   
    16   11   18 1   
    17   12   13 1   
    18   12   14 1   
    19   19   20 1   
    20   19   28 1   
    21   20   21 1   
    22   20   23 1   
    23   20   29 1   
    24   21   22 2   
    25   21   41 1   
    26   23   24 1   
    27   23   30 1   
    28   23   31 1   
    29   24   25 1   
    30   24   32 1   
    31   24   33 1   
    32   25   26 1   
    33   25   34 1   
    34   25   35 1   
    35   26   27 1   
    36   26   36 1   
    37   26   37 1   
    38   27   38 1   
    39   27   39 1   
    40   27   40 1   
    41   41   42 1   
    42   41   49 1   
    43   42   43 1   
    44   42   45 1   
    45   42   50 1   
    46   43   44 2   
    47   43   53 1   
    48   45   46 1   
    49   45   51 1   
    50   45   52 1   
    51   46   47 1   
    52   46   48 1   
    53   53   54 1   
    54   53   57 1   
    55   54   55 1   
    56   54   58 1   
    57   54   59 1   
    58   55   56 2   
    59   55   60 1   
    60   60   61 1   
    61   60   68 1   
    62   61   62 1   
    63   61   64 1   
    64   61   69 1   
    65   62   63 2   
    66   62   72 1   
    67   64   65 1   
    68   64   70 1   
    69   64   71 1   
    70   65   66 1   
    71   65   67 1   
    72   72   73 1   
    73   72   76 1   
    74   73   74 1   
    75   73   77 1   
    76   73   78 1   
    77   74   75 2   
    78   74   79 1   
    79   79   80 1   
    80   79   86 1   
    81   80   81 1   
    82   80   83 1   
    83   80   87 1   
    84   81   82 2   
    85   81   93 1   
    86   83   84 1   
    87   83   85 1   
    88   83   88 1   
    89   84   90 1   
    90   84   91 1   
    91   84   92 1   
    92   85   89 1   
    93   93   94 1   
    94   93  101 1   
    95   94   95 1   
    96   94   97 1   
    97   94  102 1   
    98   95   96 2   
    99   95  112 1   
   100   97   98 1   
   101   97   99 1   
   102   97  103 1   
   103   98  100 1   
   104   98  104 1   
   105   98  105 1   
   106   99  106 1   
   107   99  107 1   
   108   99  108 1   
   109  100  109 1   
   110  100  110 1   
   111  100  111 1   
   112  112  113 1   
   113  112  119 1   
   114  113  114 1   
   115  113  116 1   
   116  113  120 1   
   117  114  115 2   
   118  114  126 1   
   119  116  117 1   
   120  116  118 1   
   121  116  121 1   
   122  117  123 1   
   123  117  124 1   
   124  117  125 1   
   125  118  122 1   
   126  126  127 1   
   127  126  133 1   
   128  127  128 1   
   129  127  130 1   
   130  127  134 1   
   131  128  129 2   
   132  128  140 1   
   133  130  131 1   
   134  130  132 1   
   135  130  135 1   
   136  131  137 1   
   137  131  138 1   
   138  131  139 1   
   139  132  136 1   
   140  140  141 1   
   141  140  149 1   
   142  141  142 1   
   143  141  144 1   
   144  141  150 1   
   145  142  143 2   
   146  142  162 1   
   147  144  145 1   
   148  144  151 1   
   149  144  152 1   
   150  145  146 1   
   151  145  153 1   
   152  145  154 1   
   153  146  147 1   
   154  146  155 1   
   155  146  156 1   
   156  147  148 1   
   157  147  157 1   
   158  147  158 1   
   159  148  159 1   
   160  148  160 1   
   161  148  161 1   
   162  162  163 1   
   163  162  171 1   
   164  163  164 1   
   165  163  166 1   
   166  163  172 1   
   167  164  165 2   
   168  164  177 1   
   169  166  167 1   
   170  166  173 1   
   171  166  174 1   
   172  167  168 1   
   173  167  175 1   
   174  167  176 1   
   175  168  169 1   
   176  168  170 1   
   177  177  178 1   
   178  177  182 1   
   179  178  179 1   
   180  178  180 1   
   181  178  181 1   
   182  184  185 1   
   183  184  186 1   
   184  187  188 1   
   185  187  189 1   
   186  190  191 1   
   187  190  192 1   
   188  193  194 1   
   189  193  195 1   
   190  196  197 1   
   191  196  198 1   
@<TRIPOS>SUBSTRUCTURE
     1 MOL         1 TEMP              0 ****  ****    0 ROOT
