@<TRIPOS>MOLECULE
MOL
  198   191     1     0     0
SMALL
resp


@<TRIPOS>ATOM
      1 C1         -3.6850    5.9400    1.9810 c3        1 MOL     -0.312434
      2 C2         -5.2040    5.7010    1.9530 c         1 MOL      0.719717
      3 O1         -5.9580    6.5960    1.5480 o         1 MOL     -0.593483
      4 H1         -3.3460    5.9940    3.0150 hc        1 MOL      0.073655
      5 H2         -3.1770    5.1170    1.4760 hc        1 MOL      0.073655
      6 H3         -3.4540    6.8770    1.4730 hc        1 MOL      0.073655
      7 N1         -5.6710    4.5460    2.3900 n         1 MOL     -0.687469
      8 C3         -7.0510    4.0110    2.1670 c3        1 MOL      0.418814
      9 C4         -7.2960    3.7590    0.7010 c         1 MOL      0.473853
     10 O2         -6.4380    4.0230   -0.1410 o         1 MOL     -0.550003
     11 C5         -8.1190    4.7130    2.9100 c3        1 MOL     -0.434929
     12 C6         -9.3850    3.9670    3.1960 c         1 MOL      0.678259
     13 O3         -9.5900    2.7610    2.8640 o         1 MOL     -0.664038
     14 O4        -10.3470    4.6540    3.6300 o         1 MOL     -0.664038
     15 H4         -4.9270    3.8960    2.6030 hn        1 MOL      0.317714
     16 H5         -7.0020    2.9860    2.5540 h1        1 MOL      0.009938
     17 H6         -8.3770    5.6370    2.4030 hc        1 MOL      0.113317
     18 H7         -7.5640    5.0180    3.7970 hc        1 MOL      0.113317
     19 N2         -8.4970    3.2730    0.3410 n         1 MOL     -0.435461
     20 C7         -8.8890    2.7250   -1.0280 c3        1 MOL      0.050451
     21 C8         -8.0430    1.5200   -1.6230 c         1 MOL      0.417650
     22 O5         -8.0960    1.2270   -2.8210 o         1 MOL     -0.529910
     23 C9         -8.9590    3.8810   -2.1180 c3        1 MOL     -0.094634
     24 C10        -9.9360    5.0100   -1.7020 c3        1 MOL     -0.009660
     25 C11       -10.2700    5.9210   -2.8810 c3        1 MOL     -0.090679
     26 C12        -9.1040    6.7290   -3.3150 c3        1 MOL      0.019107
     27 N3         -9.3770    7.4880   -4.6240 n4        1 MOL     -0.305108
     28 H8         -9.1230    3.1480    1.1150 hn        1 MOL      0.238934
     29 H9         -9.8560    2.2690   -0.7980 h1        1 MOL      0.096203
     30 H10        -9.3430    3.3990   -3.0080 hc        1 MOL      0.040048
     31 H11        -7.9220    4.2040   -2.2540 hc        1 MOL      0.040048
     32 H12        -9.5190    5.6350   -0.9130 hc        1 MOL      0.069328
     33 H13       -10.8590    4.5560   -1.3630 hc        1 MOL      0.069328
     34 H14       -11.0240    6.6060   -2.4940 hc        1 MOL      0.029469
     35 H15       -10.7630    5.4400   -3.7220 hc        1 MOL      0.029469
     36 H16        -8.2650    6.0750   -3.5400 hx        1 MOL      0.111331
     37 H17        -8.8410    7.3770   -2.4750 hx        1 MOL      0.111331
     38 H18        -8.6990    8.2090   -4.8150 hn        1 MOL      0.304543
     39 H19        -9.5790    6.7610   -5.3030 hn        1 MOL      0.304543
     40 H20       -10.2980    7.8830   -4.4910 hn        1 MOL      0.304543
     41 N4         -7.3470    0.7590   -0.7450 n         1 MOL     -0.307371
     42 C13        -6.5660   -0.4610   -1.0100 c3        1 MOL      0.123615
     43 C14        -6.2380   -1.2280    0.3250 c         1 MOL      0.426171
     44 O6         -6.0440   -0.5690    1.3200 o         1 MOL     -0.550512
     45 C15        -5.3000    0.0160   -1.8570 c3        1 MOL      0.126244
     46 C16        -4.2470   -1.0550   -2.0100 c         1 MOL      0.691934
     47 O7         -3.0620   -0.8740   -1.6700 o         1 MOL     -0.763206
     48 O8         -4.6190   -2.1410   -2.4850 o         1 MOL     -0.763206
     49 H21        -7.5270    1.1670    0.1600 hn        1 MOL      0.199081
     50 H22        -7.2120   -1.1080   -1.6030 h1        1 MOL      0.028113
     51 H23        -4.9540    0.9100   -1.3340 hc        1 MOL     -0.028229
     52 H24        -5.6970    0.4020   -2.7980 hc        1 MOL     -0.028229
     53 N5         -6.3720   -2.5260    0.3570 n         1 MOL     -0.228261
     54 C17        -6.9490   -3.4830   -0.6440 c3        1 MOL     -0.169898
     55 C18        -6.2120   -4.8340   -0.6060 c         1 MOL      0.552131
     56 O9         -6.6660   -5.8560   -0.1910 o         1 MOL     -0.584032
     57 H25        -6.3680   -2.8870    1.3020 hn        1 MOL      0.256121
     58 H26        -6.9740   -3.0980   -1.6650 h1        1 MOL      0.093962
     59 H27        -7.9510   -3.7340   -0.3140 h1        1 MOL      0.093962
     60 N6         -4.9020   -4.7450   -0.8050 n         1 MOL     -0.028176
     61 C19        -3.9660   -5.8150   -0.6020 c3        1 MOL     -0.003801
     62 C20        -2.5780   -5.2790   -0.3850 c         1 MOL      0.268698
     63 O10        -2.2870   -4.1990   -0.8850 o         1 MOL     -0.452321
     64 C21        -3.9380   -6.7290   -1.7800 c3        1 MOL     -0.244789
     65 C22        -3.5600   -6.1380   -3.1140 c         1 MOL      0.791570
     66 O11        -3.5060   -4.8950   -3.2790 o         1 MOL     -0.730227
     67 O12        -3.4280   -6.8770   -4.0960 o         1 MOL     -0.730227
     68 H28        -4.5720   -3.9660   -1.3380 hn        1 MOL      0.025941
     69 H29        -4.2590   -6.4060    0.2530 h1        1 MOL      0.073783
     70 H30        -4.9610   -7.0640   -1.9630 hc        1 MOL      0.068462
     71 H31        -3.3210   -7.5600   -1.4130 hc        1 MOL      0.068462
     72 N7         -1.6800   -6.0670    0.2680 n         1 MOL     -0.369345
     73 C23        -0.3160   -5.6070    0.6600 c3        1 MOL      0.083171
     74 C24        -0.4110   -4.9190    2.0430 c         1 MOL      0.358223
     75 O13         0.1490   -5.3600    3.0380 o         1 MOL     -0.527949
     76 H32        -2.0270   -6.9360    0.6650 hn        1 MOL      0.316452
     77 H33         0.1230   -4.9080   -0.0500 h1        1 MOL      0.027037
     78 H34         0.4100   -6.4290    0.7130 h1        1 MOL      0.027037
     79 N8         -1.0630   -3.7400    2.0290 n         1 MOL      0.034798
     80 C25        -1.2810   -2.8200    3.1240 c3        1 MOL     -0.246299
     81 C26        -1.0810   -1.4080    2.6280 c         1 MOL      0.284922
     82 O14        -1.5740   -1.1330    1.5210 o         1 MOL     -0.433501
     83 C27        -2.7010   -2.9530    3.5350 c3        1 MOL      0.233399
     84 C28        -3.8970   -2.8520    2.4580 c3        1 MOL     -0.040297
     85 O15        -2.8450   -4.2130    4.1380 oh        1 MOL     -0.589797
     86 H35        -1.4840   -3.4420    1.1560 hn        1 MOL      0.076921
     87 H36        -0.6270   -2.9840    3.9880 h1        1 MOL      0.121111
     88 H37        -2.9650   -2.2920    4.3670 h1        1 MOL      0.023864
     89 H38        -2.3490   -4.1370    4.9500 ho        1 MOL      0.385173
     90 H39        -3.6080   -2.2400    1.6050 hc        1 MOL      0.034936
     91 H40        -4.2410   -3.7940    2.0420 hc        1 MOL      0.034936
     92 H41        -4.7260   -2.4050    2.9910 hc        1 MOL      0.034936
     93 N9         -0.3910   -0.5770    3.3680 n         1 MOL     -0.158611
     94 C29         0.1390    0.7360    2.8970 c3        1 MOL     -0.086512
     95 C30         1.4990    0.6510    2.1150 c         1 MOL      0.364409
     96 O16         1.8380    1.5910    1.3250 o         1 MOL     -0.502025
     97 C31         0.0840    1.8370    3.9980 c3        1 MOL      0.019113
     98 C32         1.2000    1.7610    5.0710 c3        1 MOL      0.155494
     99 C33        -1.2780    1.7760    4.7040 c3        1 MOL     -0.041231
    100 C34         1.5560    3.1000    5.7570 c3        1 MOL     -0.267186
    101 H42         0.0580   -0.9350    4.1940 hn        1 MOL      0.214841
    102 H43        -0.5900    1.0090    2.1350 h1        1 MOL      0.135008
    103 H44         0.1300    2.8160    3.5190 hc        1 MOL      0.046268
    104 H45         2.1090    1.3710    4.6110 hc        1 MOL     -0.030020
    105 H46         0.9970    1.0340    5.8630 hc        1 MOL     -0.030020
    106 H47        -2.1120    2.0270    4.0620 hc        1 MOL      0.014160
    107 H48        -1.5540    0.8390    5.1720 hc        1 MOL      0.014160
    108 H49        -1.3080    2.4590    5.5540 hc        1 MOL      0.014160
    109 H50         1.8090    3.7580    4.9230 hc        1 MOL      0.070675
    110 H51         0.6880    3.5170    6.2690 hc        1 MOL      0.070675
    111 H52         2.3560    3.0410    6.4950 hc        1 MOL      0.070675
    112 N10         2.2520   -0.4390    2.2200 n         1 MOL     -0.102752
    113 C35         3.4070   -0.7560    1.3560 c3        1 MOL     -0.199204
    114 C36         4.5270   -1.5110    2.2280 c         1 MOL      0.636849
    115 O17         4.3190   -2.1540    3.2490 o         1 MOL     -0.498252
    116 C37         3.0510   -1.7190    0.2000 c3        1 MOL      0.394484
    117 C38         2.4260   -3.0200    0.5870 c3        1 MOL     -0.369053
    118 O18         2.1670   -1.1800   -0.7230 oh        1 MOL     -0.654855
    119 H53         2.1280   -1.0480    3.0110 hn        1 MOL      0.156292
    120 H54         3.7410    0.1540    0.8520 h1        1 MOL      0.084306
    121 H55         3.9960   -1.9030   -0.3240 h1        1 MOL     -0.009077
    122 H56         2.5510   -0.3990   -1.1230 ho        1 MOL      0.429579
    123 H57         3.1630   -3.7210    0.9880 hc        1 MOL      0.105982
    124 H58         1.5980   -2.9140    1.2890 hc        1 MOL      0.105982
    125 H59         2.1660   -3.4460   -0.3920 hc        1 MOL      0.105982
    126 N11         5.7800   -1.4250    1.6830 n         1 MOL     -0.604181
    127 C39         7.0190   -1.8200    2.4460 c3        1 MOL     -0.020033
    128 C40         8.2870   -0.9810    2.1460 c         1 MOL      0.611561
    129 O19         9.0600   -0.6410    3.0810 o         1 MOL     -0.548017
    130 C41         7.3230   -3.2590    2.1110 c3        1 MOL      0.226155
    131 C42         8.3880   -3.9720    2.8770 c3        1 MOL     -0.400768
    132 O20         7.5710   -3.4720    0.7240 oh        1 MOL     -0.647587
    133 H60         5.8040   -1.1920    0.6990 hn        1 MOL      0.319613
    134 H61         6.7960   -1.7210    3.5120 h1        1 MOL      0.146908
    135 H62         6.3760   -3.7500    2.3080 h1        1 MOL      0.070478
    136 H63         7.8260   -4.3930    0.5830 ho        1 MOL      0.422175
    137 H64         8.1600   -3.9620    3.9400 hc        1 MOL      0.113465
    138 H65         8.4650   -5.0150    2.5380 hc        1 MOL      0.113465
    139 H66         9.3950   -3.5730    2.8070 hc        1 MOL      0.113465
    140 N12         8.4650   -0.4840    0.8830 n         1 MOL     -0.496014
    141 C43         9.4790    0.5240    0.4510 c3        1 MOL      0.082206
    142 C44         8.8340    1.4020   -0.6380 c         1 MOL      0.391343
    143 O21         8.3660    0.8140   -1.5910 o         1 MOL     -0.486383
    144 C45        10.6640   -0.1870   -0.1250 c3        1 MOL     -0.232518
    145 C46        11.7100    0.7330   -0.7000 c3        1 MOL      0.118866
    146 C47        12.8720   -0.1020   -1.3540 c3        1 MOL     -0.078628
    147 C48        13.9620    0.8130   -1.9130 c3        1 MOL      0.107581
    148 N13        14.9860   -0.0100   -2.6500 n4        1 MOL     -0.230794
    149 H67         7.8680   -0.9780    0.2260 hn        1 MOL      0.316559
    150 H68         9.7200    1.2230    1.2670 h1        1 MOL      0.085055
    151 H69        10.3710   -0.8660   -0.9320 hc        1 MOL      0.096536
    152 H70        11.0900   -0.7680    0.6830 hc        1 MOL      0.096536
    153 H71        12.0060    1.4220    0.0980 hc        1 MOL     -0.011781
    154 H72        11.2000    1.3150   -1.4630 hc        1 MOL     -0.011781
    155 H73        12.5110   -0.5540   -2.2690 hc        1 MOL      0.035503
    156 H74        13.4210   -0.8000   -0.7190 hc        1 MOL      0.035503
    157 H75        14.4490    1.3450   -1.0910 hx        1 MOL      0.061089
    158 H76        13.5080    1.4920   -2.6300 hx        1 MOL      0.061089
    159 H77        15.4610    0.5320   -3.3550 hn        1 MOL      0.248956
    160 H78        15.6270   -0.5030   -2.0340 hn        1 MOL      0.248956
    161 H79        14.5200   -0.7420   -3.1650 hn        1 MOL      0.248956
    162 N14         8.8730    2.7310   -0.5530 n         1 MOL     -0.379986
    163 C49         8.4450    3.5750   -1.6570 c3        1 MOL      0.314502
    164 C50         6.9390    3.7880   -1.8040 c         1 MOL      0.321139
    165 O22         6.4310    3.5650   -2.9290 o         1 MOL     -0.537405
    166 C51         9.3110    4.9030   -1.7320 c3        1 MOL     -0.017465
    167 C52        10.7440    4.6260   -2.1640 c3        1 MOL     -0.245124
    168 C53        11.5270    5.9210   -2.0820 c         1 MOL      0.645992
    169 O23        11.5430    6.6930   -3.0620 o         1 MOL     -0.668625
    170 O24        12.0280    6.2690   -1.0020 o         1 MOL     -0.668625
    171 H80         9.3180    3.1690    0.2400 hn        1 MOL      0.292458
    172 H81         8.6710    3.0500   -2.5930 h1        1 MOL     -0.003643
    173 H82         9.1600    5.2690   -0.7170 hc        1 MOL      0.051613
    174 H83         8.9600    5.5240   -2.5520 hc        1 MOL      0.051613
    175 H84        10.8790    4.3840   -3.2170 hc        1 MOL      0.043716
    176 H85        11.2440    3.8860   -1.5350 hc        1 MOL      0.043716
    177 N15         6.0970    4.1990   -0.8450 n         1 MOL     -0.338385
    178 C54         6.5410    4.7460    0.4290 c3        1 MOL      0.023480
    179 H86         6.8830    5.7710    0.2840 h1        1 MOL      0.024537
    180 H87         5.7130    4.7370    1.1380 h1        1 MOL      0.024537
    181 H88         7.3600    4.1410    0.8200 h1        1 MOL      0.024537
    182 H89         5.1320    4.2000   -1.1340 hn        1 MOL      0.301513
    183 Ca1        -1.8650   -2.8050   -3.0830 Ca        1 MOL      1.725613
    184 O25        -0.0030   -4.9330   -2.9090 oh        1 MOL     -0.804380
    185 H90         0.8770   -4.9300   -3.2970 ho        1 MOL      0.405250
    186 H91        -0.0380   -5.7370   -2.3960 ho        1 MOL      0.405250
    187 O26         0.1720   -1.1060   -3.9740 oh        1 MOL     -0.804380
    188 H92         1.1120   -1.2770   -3.9000 ho        1 MOL      0.405250
    189 H93         0.1170   -0.3150   -4.5130 ho        1 MOL      0.405250
    190 O27        -2.4840   -0.6740   -4.8430 oh        1 MOL     -0.804380
    191 H94        -3.0730    0.0420   -4.5840 ho        1 MOL      0.405250
    192 H95        -2.8210   -0.9470   -5.6940 ho        1 MOL      0.405250
    193 O28        -0.3410   -1.6890   -1.2370 oh        1 MOL     -0.804380
    194 H96        -0.7620   -1.4280   -0.4260 ho        1 MOL      0.405250
    195 H97         0.5980   -1.5870   -1.0650 ho        1 MOL      0.405250
    196 O29        -1.1560   -3.4020   -5.6520 oh        1 MOL     -0.804380
    197 H98        -1.0150   -4.2150   -6.1370 ho        1 MOL      0.405250
    198 H99        -0.7850   -2.7180   -6.2150 ho        1 MOL      0.405250
@<TRIPOS>BOND
     1    1    2 1   
     2    1    4 1   
     3    1    5 1   
     4    1    6 1   
     5    2    3 2   
     6    2    7 1   
     7    7    8 1   
     8    7   15 1   
     9    8    9 1   
    10    8   11 1   
    11    8   16 1   
    12    9   10 2   
    13    9   19 1   
    14   11   12 1   
    15   11   17 1   
    16   11   18 1   
    17   12   13 1   
    18   12   14 1   
    19   19   20 1   
    20   19   28 1   
    21   20   21 1   
    22   20   23 1   
    23   20   29 1   
    24   21   22 2   
    25   21   41 1   
    26   23   24 1   
    27   23   30 1   
    28   23   31 1   
    29   24   25 1   
    30   24   32 1   
    31   24   33 1   
    32   25   26 1   
    33   25   34 1   
    34   25   35 1   
    35   26   27 1   
    36   26   36 1   
    37   26   37 1   
    38   27   38 1   
    39   27   39 1   
    40   27   40 1   
    41   41   42 1   
    42   41   49 1   
    43   42   43 1   
    44   42   45 1   
    45   42   50 1   
    46   43   44 2   
    47   43   53 1   
    48   45   46 1   
    49   45   51 1   
    50   45   52 1   
    51   46   47 1   
    52   46   48 1   
    53   53   54 1   
    54   53   57 1   
    55   54   55 1   
    56   54   58 1   
    57   54   59 1   
    58   55   56 2   
    59   55   60 1   
    60   60   61 1   
    61   60   68 1   
    62   61   62 1   
    63   61   64 1   
    64   61   69 1   
    65   62   63 2   
    66   62   72 1   
    67   64   65 1   
    68   64   70 1   
    69   64   71 1   
    70   65   66 1   
    71   65   67 1   
    72   72   73 1   
    73   72   76 1   
    74   73   74 1   
    75   73   77 1   
    76   73   78 1   
    77   74   75 2   
    78   74   79 1   
    79   79   80 1   
    80   79   86 1   
    81   80   81 1   
    82   80   83 1   
    83   80   87 1   
    84   81   82 2   
    85   81   93 1   
    86   83   84 1   
    87   83   85 1   
    88   83   88 1   
    89   84   90 1   
    90   84   91 1   
    91   84   92 1   
    92   85   89 1   
    93   93   94 1   
    94   93  101 1   
    95   94   95 1   
    96   94   97 1   
    97   94  102 1   
    98   95   96 2   
    99   95  112 1   
   100   97   98 1   
   101   97   99 1   
   102   97  103 1   
   103   98  100 1   
   104   98  104 1   
   105   98  105 1   
   106   99  106 1   
   107   99  107 1   
   108   99  108 1   
   109  100  109 1   
   110  100  110 1   
   111  100  111 1   
   112  112  113 1   
   113  112  119 1   
   114  113  114 1   
   115  113  116 1   
   116  113  120 1   
   117  114  115 2   
   118  114  126 1   
   119  116  117 1   
   120  116  118 1   
   121  116  121 1   
   122  117  123 1   
   123  117  124 1   
   124  117  125 1   
   125  118  122 1   
   126  126  127 1   
   127  126  133 1   
   128  127  128 1   
   129  127  130 1   
   130  127  134 1   
   131  128  129 2   
   132  128  140 1   
   133  130  131 1   
   134  130  132 1   
   135  130  135 1   
   136  131  137 1   
   137  131  138 1   
   138  131  139 1   
   139  132  136 1   
   140  140  141 1   
   141  140  149 1   
   142  141  142 1   
   143  141  144 1   
   144  141  150 1   
   145  142  143 2   
   146  142  162 1   
   147  144  145 1   
   148  144  151 1   
   149  144  152 1   
   150  145  146 1   
   151  145  153 1   
   152  145  154 1   
   153  146  147 1   
   154  146  155 1   
   155  146  156 1   
   156  147  148 1   
   157  147  157 1   
   158  147  158 1   
   159  148  159 1   
   160  148  160 1   
   161  148  161 1   
   162  162  163 1   
   163  162  171 1   
   164  163  164 1   
   165  163  166 1   
   166  163  172 1   
   167  164  165 2   
   168  164  177 1   
   169  166  167 1   
   170  166  173 1   
   171  166  174 1   
   172  167  168 1   
   173  167  175 1   
   174  167  176 1   
   175  168  169 1   
   176  168  170 1   
   177  177  178 1   
   178  177  182 1   
   179  178  179 1   
   180  178  180 1   
   181  178  181 1   
   182  184  185 1   
   183  184  186 1   
   184  187  188 1   
   185  187  189 1   
   186  190  191 1   
   187  190  192 1   
   188  193  194 1   
   189  193  195 1   
   190  196  197 1   
   191  196  198 1   
@<TRIPOS>SUBSTRUCTURE
     1 MOL         1 TEMP              0 ****  ****    0 ROOT
