@<TRIPOS>MOLECULE
MOL
  189   185     1     0     0
SMALL
resp


@<TRIPOS>ATOM
      1 C1         12.3340    4.3450   -3.5990 c3        1 MOL     -0.430132
      2 C2         12.0860    2.9970   -2.8590 c         1 MOL      0.663612
      3 O1         12.7920    2.0000   -3.0110 o         1 MOL     -0.583888
      4 H1         11.3910    4.8810   -3.7040 hc        1 MOL      0.120091
      5 H2         13.0330    4.9530   -3.0250 hc        1 MOL      0.120091
      6 H3         12.7510    4.1470   -4.5870 hc        1 MOL      0.120091
      7 N1         11.0850    2.9880   -2.0020 n         1 MOL     -0.310671
      8 C3         10.7960    1.9620   -0.9920 c3        1 MOL     -0.135666
      9 C4          9.2730    1.6460   -1.0260 c         1 MOL      0.580412
     10 O2          8.3470    2.4940   -1.1930 o         1 MOL     -0.596287
     11 C5         11.3020    2.3790    0.3770 c3        1 MOL     -0.009656
     12 C6         10.9240    3.8660    0.7220 c         1 MOL      0.687083
     13 O3          9.9410    4.3950    0.1570 o         1 MOL     -0.675450
     14 O4         11.4830    4.4360    1.6580 o         1 MOL     -0.675450
     15 H4         10.4840    3.8010   -1.9560 hn        1 MOL      0.105325
     16 H5         11.2620    1.0050   -1.2060 h1        1 MOL      0.084660
     17 H6         12.3840    2.3820    0.2910 hc        1 MOL      0.032559
     18 H7         11.1150    1.6870    1.2060 hc        1 MOL      0.032559
     19 N2          8.9560    0.3550   -0.7910 n         1 MOL     -0.439037
     20 C7          7.7010   -0.3020   -1.0880 c3        1 MOL      0.021987
     21 C8          6.6650   -0.1140    0.0160 c         1 MOL      0.703267
     22 O5          6.9340   -0.1850    1.2220 o         1 MOL     -0.577460
     23 C9          7.9730   -1.7930   -1.5210 c3        1 MOL     -0.291468
     24 C10         6.6660   -2.6110   -1.8150 c3        1 MOL      0.194156
     25 C11         6.9180   -4.0470   -2.3590 c3        1 MOL     -0.057324
     26 C12         5.6890   -4.8790   -2.6360 c3        1 MOL      0.220181
     27 N3          5.9760   -6.2450   -3.0930 n4        1 MOL     -0.385540
     28 H8          9.7560   -0.2140   -0.5200 hn        1 MOL      0.301501
     29 H9          7.2130    0.1260   -1.9720 h1        1 MOL      0.102553
     30 H10         8.7160   -2.1210   -0.7910 hc        1 MOL      0.092976
     31 H11         8.4660   -1.7070   -2.4850 hc        1 MOL      0.092976
     32 H12         6.1010   -2.1590   -2.6330 hc        1 MOL     -0.021937
     33 H13         6.0390   -2.6540   -0.9180 hc        1 MOL     -0.021937
     34 H14         7.5960   -4.5390   -1.6650 hc        1 MOL      0.004658
     35 H15         7.4040   -4.0120   -3.3380 hc        1 MOL      0.004658
     36 H16         5.1670   -4.3710   -3.4430 hx        1 MOL      0.026576
     37 H17         5.0200   -4.9020   -1.7780 hx        1 MOL      0.026576
     38 H18         6.5680   -6.1470   -3.8990 hn        1 MOL      0.285231
     39 H19         6.4210   -6.7450   -2.3260 hn        1 MOL      0.285231
     40 H20         5.1250   -6.7350   -3.3290 hn        1 MOL      0.285231
     41 N4          5.4750    0.2670   -0.4630 n         1 MOL     -0.481023
     42 C13         4.2720    0.5630    0.2490 c3        1 MOL      0.294507
     43 C14         3.1690   -0.4290   -0.0860 c         1 MOL      0.359571
     44 O6          2.8410   -0.5740   -1.2350 o         1 MOL     -0.576873
     45 C15         3.7200    2.0100    0.0340 c3        1 MOL      0.118167
     46 C16         4.7970    3.1330    0.0730 c         1 MOL      0.632239
     47 O7          5.2590    3.6100   -0.9980 o         1 MOL     -0.805353
     48 O8          5.3240    3.3770    1.1960 o         1 MOL     -0.805353
     49 H21         5.4100    0.3900   -1.4670 hn        1 MOL      0.223626
     50 H22         4.4870    0.6580    1.3180 h1        1 MOL      0.027095
     51 H23         2.9970    2.2810    0.8050 hc        1 MOL      0.006710
     52 H24         3.1090    2.0760   -0.8680 hc        1 MOL      0.006710
     53 N5          2.4870   -1.0630    0.8780 n         1 MOL     -0.415898
     54 C17         2.6630   -1.2420    2.3530 c3        1 MOL     -0.155110
     55 C18         2.1110   -2.5680    2.8970 c         1 MOL      0.640616
     56 O9          1.9510   -3.5140    2.1580 o         1 MOL     -0.529292
     57 H25         1.9320   -1.7750    0.4230 hn        1 MOL      0.390850
     58 H26         2.0870   -0.4480    2.8260 h1        1 MOL      0.083376
     59 H27         3.7090   -1.1160    2.6180 h1        1 MOL      0.083376
     60 N6          1.8500   -2.6450    4.1750 n         1 MOL     -0.464554
     61 C19         1.5110   -3.8510    4.9320 c3        1 MOL      0.068901
     62 C20         0.3550   -4.6630    4.2110 c         1 MOL      0.585557
     63 O10        -0.7950   -4.2840    4.2470 o         1 MOL     -0.525969
     64 C21         1.2090   -3.5990    6.3940 c3        1 MOL     -0.234137
     65 C22         1.1520   -4.8220    7.2320 c         1 MOL      0.682110
     66 O11         1.4130   -5.9860    6.8150 o         1 MOL     -0.639450
     67 O12         0.6180   -4.7150    8.3390 o         1 MOL     -0.639450
     68 H28         1.8620   -1.7920    4.7140 hn        1 MOL      0.289364
     69 H29         2.3320   -4.5780    4.8780 h1        1 MOL     -0.011310
     70 H30         0.2450   -3.0980    6.4230 hc        1 MOL      0.079465
     71 H31         1.9140   -2.8700    6.7810 hc        1 MOL      0.079465
     72 N7          0.6520   -5.7880    3.5590 n         1 MOL     -0.308380
     73 C23        -0.2280   -6.6090    2.8620 c3        1 MOL     -0.053559
     74 C24        -0.6140   -6.1630    1.4430 c         1 MOL      0.442793
     75 O13        -1.4800   -6.8580    0.9060 o         1 MOL     -0.571799
     76 H32         1.5970   -6.1360    3.6120 hn        1 MOL      0.239720
     77 H33        -1.1650   -6.7040    3.4170 h1        1 MOL      0.087638
     78 H34         0.1450   -7.6320    2.9140 h1        1 MOL      0.087638
     79 N8         -0.0360   -5.1580    0.8150 n         1 MOL     -0.094915
     80 C25        -0.3440   -4.6630   -0.5540 c3        1 MOL      0.020030
     81 C26        -0.7130   -3.2080   -0.5770 c         1 MOL      0.488921
     82 O14        -0.7200   -2.5780    0.4940 o         1 MOL     -0.493797
     83 C27         0.8170   -5.0290   -1.5100 c3        1 MOL      0.060091
     84 C28         2.2610   -4.6410   -1.1870 c3        1 MOL     -0.162261
     85 O15         0.8910   -6.4460   -1.8280 oh        1 MOL     -0.584165
     86 H35         0.6730   -4.6390    1.3130 hn        1 MOL      0.081049
     87 H36        -1.1890   -5.2440   -0.9300 h1        1 MOL      0.064620
     88 H37         0.5640   -4.5840   -2.4770 h1        1 MOL      0.046756
     89 H38        -0.0220   -6.6560   -2.0240 ho        1 MOL      0.384552
     90 H39         2.8680   -5.2200   -1.8850 hc        1 MOL      0.052271
     91 H40         2.4340   -3.5660   -1.2720 hc        1 MOL      0.052271
     92 H41         2.5660   -4.8500   -0.1600 hc        1 MOL      0.052271
     93 N9         -1.1560   -2.6630   -1.6930 n         1 MOL     -0.334695
     94 C29        -1.7020   -1.2920   -1.9260 c3        1 MOL     -0.486292
     95 C30        -3.1750   -1.3400   -1.4870 c         1 MOL      0.866077
     96 O16        -3.6300   -0.3990   -0.8790 o         1 MOL     -0.561531
     97 C31        -1.5360   -0.9170   -3.4360 c3        1 MOL      0.294046
     98 C32         0.0060   -1.0670   -3.8570 c3        1 MOL      0.001585
     99 C33        -1.8980    0.5300   -3.5110 c3        1 MOL     -0.404282
    100 C34         0.1990   -0.8080   -5.3520 c3        1 MOL     -0.179842
    101 H42        -1.2070   -3.2900   -2.4860 hn        1 MOL      0.222080
    102 H43        -1.2600   -0.5560   -1.2500 h1        1 MOL      0.193186
    103 H44        -2.1950   -1.4310   -4.1420 hc        1 MOL     -0.018122
    104 H45         0.3500   -2.0790   -3.6300 hc        1 MOL      0.029340
    105 H46         0.6040   -0.3570   -3.2750 hc        1 MOL      0.029340
    106 H47        -1.2320    1.0510   -2.8280 hc        1 MOL      0.108925
    107 H48        -1.7200    0.9530   -4.5010 hc        1 MOL      0.108925
    108 H49        -2.8890    0.6750   -3.0700 hc        1 MOL      0.108925
    109 H50         1.1590   -1.2150   -5.6820 hc        1 MOL      0.041928
    110 H51        -0.5240   -1.3770   -5.9300 hc        1 MOL      0.041928
    111 H52         0.1250    0.2650   -5.5440 hc        1 MOL      0.041928
    112 N10        -3.8830   -2.4250   -1.7290 n         1 MOL     -0.388525
    113 C35        -5.3420   -2.4160   -1.3890 c3        1 MOL     -0.575028
    114 C36        -6.2220   -1.8620   -2.5770 c         1 MOL      0.684713
    115 O17        -5.8790   -2.0980   -3.7290 o         1 MOL     -0.512283
    116 C37        -5.9070   -3.8120   -0.9960 c3        1 MOL      0.622208
    117 C38        -5.8270   -4.9340   -2.0080 c3        1 MOL     -0.166179
    118 O18        -5.1160   -4.2210    0.0820 oh        1 MOL     -0.667533
    119 H53        -3.5000   -3.2770   -2.1150 hn        1 MOL      0.281934
    120 H54        -5.5320   -1.8890   -0.4430 h1        1 MOL      0.164298
    121 H55        -6.9260   -3.7190   -0.6170 h1        1 MOL     -0.054749
    122 H56        -4.8080   -3.4580    0.5860 ho        1 MOL      0.420648
    123 H57        -4.9200   -5.5140   -1.8650 hc        1 MOL      0.042832
    124 H58        -6.6890   -5.5940   -1.9150 hc        1 MOL      0.042832
    125 H59        -5.8680   -4.4570   -2.9830 hc        1 MOL      0.042832
    126 N11        -7.3000   -1.1670   -2.2010 n         1 MOL     -0.390053
    127 C39        -8.2880   -0.6460   -3.1140 c3        1 MOL     -0.181999
    128 C40        -8.5740    0.8420   -2.7400 c         1 MOL      0.641091
    129 O19        -8.8820    1.5750   -3.7250 o         1 MOL     -0.552227
    130 C41        -9.5350   -1.6290   -3.0390 c3        1 MOL      0.264705
    131 C42       -10.1010   -1.7680   -1.6220 c3        1 MOL     -0.226621
    132 O20        -9.1890   -2.8750   -3.5610 oh        1 MOL     -0.579876
    133 H60        -7.5160   -1.1300   -1.2150 hn        1 MOL      0.281244
    134 H61        -7.8250   -0.7210   -4.1030 h1        1 MOL      0.145706
    135 H62       -10.3340   -1.1660   -3.6200 h1        1 MOL      0.011726
    136 H63        -9.4890   -2.9100   -4.4690 ho        1 MOL      0.410113
    137 H64       -11.1080   -2.1720   -1.6960 hc        1 MOL      0.063859
    138 H65        -9.5230   -2.4120   -0.9650 hc        1 MOL      0.063859
    139 H66       -10.2510   -0.8470   -1.0560 hc        1 MOL      0.063859
    140 N12        -8.4140    1.3110   -1.4320 n         1 MOL     -0.533868
    141 C43        -8.5660    2.7800   -0.9890 c3        1 MOL      0.130990
    142 C44        -7.7270    3.1200    0.2360 c         1 MOL      0.543360
    143 O21        -7.2440    2.1440    0.9010 o         1 MOL     -0.511099
    144 C45       -10.0070    3.1140   -0.7270 c3        1 MOL     -0.453966
    145 C46       -10.6060    2.4170    0.4990 c3        1 MOL     -0.064952
    146 C47       -12.1530    2.5840    0.5740 c3        1 MOL     -0.009975
    147 C48       -12.6900    1.5910    1.6550 c3        1 MOL      0.073232
    148 N13       -14.1960    1.5570    1.5630 n4        1 MOL     -0.325562
    149 H67        -8.1050    0.6190   -0.7630 hn        1 MOL      0.259793
    150 H68        -8.3230    3.4480   -1.8200 h1        1 MOL      0.098432
    151 H69       -10.6850    2.8170   -1.5360 hc        1 MOL      0.149528
    152 H70       -10.1390    4.1910   -0.6570 hc        1 MOL      0.149528
    153 H71       -10.0560    2.6920    1.3990 hc        1 MOL      0.071735
    154 H72       -10.3450    1.3680    0.3810 hc        1 MOL      0.071735
    155 H73       -12.6740    2.3600   -0.3560 hc        1 MOL      0.043248
    156 H74       -12.4500    3.5780    0.9140 hc        1 MOL      0.043248
    157 H75       -12.3380    1.9440    2.6180 hx        1 MOL      0.068462
    158 H76       -12.2030    0.6230    1.5150 hx        1 MOL      0.068462
    159 H77       -14.4400    1.4460    0.5910 hn        1 MOL      0.259555
    160 H78       -14.4950    0.7580    2.0990 hn        1 MOL      0.259555
    161 H79       -14.7220    2.2820    2.0240 hn        1 MOL      0.259555
    162 N14        -7.4910    4.4030    0.4460 n         1 MOL     -0.502588
    163 C49        -6.5290    4.9480    1.4110 c3        1 MOL      0.287611
    164 C50        -5.0610    4.5570    1.2310 c         1 MOL      0.329447
    165 O22        -4.4530    4.2230    2.2030 o         1 MOL     -0.501168
    166 C51        -6.6720    6.4870    1.5350 c3        1 MOL      0.076150
    167 C52        -6.0880    6.9800    2.9220 c3        1 MOL     -0.116439
    168 C53        -6.1310    8.5270    2.8340 c         1 MOL      0.690896
    169 O23        -7.1490    9.1280    2.4490 o         1 MOL     -0.647184
    170 O24        -5.0590    9.0760    2.9830 o         1 MOL     -0.647184
    171 H80        -7.7370    5.0160   -0.3160 hn        1 MOL      0.256098
    172 H81        -6.7140    4.6160    2.4310 h1        1 MOL      0.034192
    173 H82        -7.7240    6.7450    1.6380 hc        1 MOL     -0.029215
    174 H83        -6.3310    7.1280    0.7200 hc        1 MOL     -0.029215
    175 H84        -5.0950    6.5670    3.1140 hc        1 MOL      0.003214
    176 H85        -6.7450    6.6420    3.7200 hc        1 MOL      0.003214
    177 N15        -4.4470    4.5250    0.0500 n         1 MOL     -0.278812
    178 C54        -4.8550    4.9420   -1.3490 c3        1 MOL     -0.124593
    179 H86        -5.3850    5.8930   -1.3050 h1        1 MOL      0.078572
    180 H87        -3.9650    5.0520   -1.9690 h1        1 MOL      0.078572
    181 H88        -5.5060    4.1820   -1.7800 h1        1 MOL      0.078572
    182 H89        -3.4740    4.2640    0.1380 hn        1 MOL      0.269320
    183 Ca1         7.3280    4.6970    0.0290 Ca        1 MOL      1.764905
    184 O25         8.0750    3.0570    2.1410 oh        1 MOL     -0.921538
    185 H90         8.7160    3.2120    2.8410 ho        1 MOL      0.454717
    186 H91         7.2920    2.7390    2.6030 ho        1 MOL      0.454717
    187 O26         7.6210    6.3430    2.2670 oh        1 MOL     -0.921538
    188 H92         7.9000    6.2910    3.1850 ho        1 MOL      0.454717
    189 H93         6.7400    6.7040    2.3090 ho        1 MOL      0.454717
@<TRIPOS>BOND
     1    1    2 1   
     2    1    4 1   
     3    1    5 1   
     4    1    6 1   
     5    2    3 2   
     6    2    7 1   
     7    7    8 1   
     8    7   15 1   
     9    8    9 1   
    10    8   11 1   
    11    8   16 1   
    12    9   10 2   
    13    9   19 1   
    14   11   12 1   
    15   11   17 1   
    16   11   18 1   
    17   12   13 1   
    18   12   14 1   
    19   19   20 1   
    20   19   28 1   
    21   20   21 1   
    22   20   23 1   
    23   20   29 1   
    24   21   22 2   
    25   21   41 1   
    26   23   24 1   
    27   23   30 1   
    28   23   31 1   
    29   24   25 1   
    30   24   32 1   
    31   24   33 1   
    32   25   26 1   
    33   25   34 1   
    34   25   35 1   
    35   26   27 1   
    36   26   36 1   
    37   26   37 1   
    38   27   38 1   
    39   27   39 1   
    40   27   40 1   
    41   41   42 1   
    42   41   49 1   
    43   42   43 1   
    44   42   45 1   
    45   42   50 1   
    46   43   44 2   
    47   43   53 1   
    48   45   46 1   
    49   45   51 1   
    50   45   52 1   
    51   46   47 1   
    52   46   48 1   
    53   53   54 1   
    54   53   57 1   
    55   54   55 1   
    56   54   58 1   
    57   54   59 1   
    58   55   56 2   
    59   55   60 1   
    60   60   61 1   
    61   60   68 1   
    62   61   62 1   
    63   61   64 1   
    64   61   69 1   
    65   62   63 2   
    66   62   72 1   
    67   64   65 1   
    68   64   70 1   
    69   64   71 1   
    70   65   66 1   
    71   65   67 1   
    72   72   73 1   
    73   72   76 1   
    74   73   74 1   
    75   73   77 1   
    76   73   78 1   
    77   74   75 2   
    78   74   79 1   
    79   79   80 1   
    80   79   86 1   
    81   80   81 1   
    82   80   83 1   
    83   80   87 1   
    84   81   82 2   
    85   81   93 1   
    86   83   84 1   
    87   83   85 1   
    88   83   88 1   
    89   84   90 1   
    90   84   91 1   
    91   84   92 1   
    92   85   89 1   
    93   93   94 1   
    94   93  101 1   
    95   94   95 1   
    96   94   97 1   
    97   94  102 1   
    98   95   96 2   
    99   95  112 1   
   100   97   98 1   
   101   97   99 1   
   102   97  103 1   
   103   98  100 1   
   104   98  104 1   
   105   98  105 1   
   106   99  106 1   
   107   99  107 1   
   108   99  108 1   
   109  100  109 1   
   110  100  110 1   
   111  100  111 1   
   112  112  113 1   
   113  112  119 1   
   114  113  114 1   
   115  113  116 1   
   116  113  120 1   
   117  114  115 2   
   118  114  126 1   
   119  116  117 1   
   120  116  118 1   
   121  116  121 1   
   122  117  123 1   
   123  117  124 1   
   124  117  125 1   
   125  118  122 1   
   126  126  127 1   
   127  126  133 1   
   128  127  128 1   
   129  127  130 1   
   130  127  134 1   
   131  128  129 2   
   132  128  140 1   
   133  130  131 1   
   134  130  132 1   
   135  130  135 1   
   136  131  137 1   
   137  131  138 1   
   138  131  139 1   
   139  132  136 1   
   140  140  141 1   
   141  140  149 1   
   142  141  142 1   
   143  141  144 1   
   144  141  150 1   
   145  142  143 2   
   146  142  162 1   
   147  144  145 1   
   148  144  151 1   
   149  144  152 1   
   150  145  146 1   
   151  145  153 1   
   152  145  154 1   
   153  146  147 1   
   154  146  155 1   
   155  146  156 1   
   156  147  148 1   
   157  147  157 1   
   158  147  158 1   
   159  148  159 1   
   160  148  160 1   
   161  148  161 1   
   162  162  163 1   
   163  162  171 1   
   164  163  164 1   
   165  163  166 1   
   166  163  172 1   
   167  164  165 2   
   168  164  177 1   
   169  166  167 1   
   170  166  173 1   
   171  166  174 1   
   172  167  168 1   
   173  167  175 1   
   174  167  176 1   
   175  168  169 1   
   176  168  170 1   
   177  177  178 1   
   178  177  182 1   
   179  178  179 1   
   180  178  180 1   
   181  178  181 1   
   182  184  185 1   
   183  184  186 1   
   184  187  188 1   
   185  187  189 1   
@<TRIPOS>SUBSTRUCTURE
     1 MOL         1 TEMP              0 ****  ****    0 ROOT
