@<TRIPOS>MOLECULE
MOL
  195   189     1     0     0
SMALL
resp


@<TRIPOS>ATOM
      1 C1          5.9330    2.0760    5.3950 c3        1 MOL     -0.258949
      2 C2          5.5170    1.6250    3.9890 c         1 MOL      0.738789
      3 O1          5.1150    2.4510    3.1780 o         1 MOL     -0.602957
      4 H1          6.9510    1.7440    5.5960 hc        1 MOL      0.067979
      5 H2          5.8880    3.1630    5.4560 hc        1 MOL      0.067979
      6 H3          5.2570    1.6410    6.1320 hc        1 MOL      0.067979
      7 N1          5.6010    0.3280    3.5900 n         1 MOL     -0.583377
      8 C3          5.1980   -0.0670    2.1950 c3        1 MOL      0.509021
      9 C4          3.6810   -0.0590    1.9430 c         1 MOL     -0.050379
     10 O2          3.2510   -0.6260    0.9390 o         1 MOL     -0.361670
     11 C5          5.7640   -1.4550    1.8860 c3        1 MOL     -0.136574
     12 C6          7.1830   -1.7950    2.4320 c         1 MOL      0.628296
     13 O3          7.5080   -1.6100    3.5910 o         1 MOL     -0.678676
     14 O4          8.0000   -2.2330    1.5710 o         1 MOL     -0.678676
     15 H4          5.8440   -0.3880    4.2520 hn        1 MOL      0.280084
     16 H5          5.5400    0.7040    1.5030 h1        1 MOL     -0.010982
     17 H6          5.7230   -1.5740    0.8050 hc        1 MOL     -0.026330
     18 H7          5.1280   -2.2240    2.3260 hc        1 MOL     -0.026330
     19 N2          2.9270    0.6940    2.7340 n         1 MOL     -0.244355
     20 C7          1.4460    0.6520    2.6850 c3        1 MOL      0.425264
     21 C8          0.8530    2.0320    2.2500 c         1 MOL      0.161218
     22 O5          1.3340    3.0050    2.7840 o         1 MOL     -0.434259
     23 C9          0.9690   -0.0890    3.9630 c3        1 MOL     -0.386580
     24 C10         1.6020   -1.5030    4.1030 c3        1 MOL      0.080678
     25 C11         0.8320   -2.3580    5.1140 c3        1 MOL     -0.085191
     26 C12         1.2260   -3.8000    5.0850 c3        1 MOL     -0.047206
     27 N3          0.9620   -4.4630    3.7830 n4        1 MOL     -0.203067
     28 H8          3.3790    1.2160    3.4820 hn        1 MOL      0.203283
     29 H9          1.1460   -0.0770    1.9250 h1        1 MOL      0.191086
     30 H10        -0.1100   -0.1480    3.8430 hc        1 MOL      0.101121
     31 H11         1.1730    0.4800    4.8750 hc        1 MOL      0.101121
     32 H12         2.6590   -1.3980    4.3420 hc        1 MOL      0.015831
     33 H13         1.6150   -1.9210    3.0960 hc        1 MOL      0.015831
     34 H14        -0.2540   -2.3420    5.0500 hc        1 MOL      0.074071
     35 H15         1.0180   -1.8940    6.0850 hc        1 MOL      0.074071
     36 H16         0.6620   -4.3500    5.8470 hx        1 MOL      0.086268
     37 H17         2.2760   -3.9620    5.2910 hx        1 MOL      0.086268
     38 H18         1.5710   -4.1790    3.0290 hn        1 MOL      0.284184
     39 H19         0.9850   -5.4650    3.9520 hn        1 MOL      0.284184
     40 H20         0.0630   -4.1960    3.4370 hn        1 MOL      0.284184
     41 N4         -0.1730    2.1150    1.3970 n         1 MOL     -0.107280
     42 C13        -0.9350    1.0490    0.7130 c3        1 MOL     -0.082682
     43 C14        -1.3860   -0.1890    1.5010 c         1 MOL      0.414713
     44 O6         -0.6970   -1.1960    1.6420 o         1 MOL     -0.579884
     45 C15        -0.1860    0.6840   -0.5740 c3        1 MOL     -0.030724
     46 C16        -0.0020    1.8480   -1.5650 c         1 MOL      0.580179
     47 O7         -0.5810    2.9460   -1.2980 o         1 MOL     -0.650266
     48 O8          0.5770    1.6590   -2.6270 o         1 MOL     -0.650266
     49 H21        -0.2910    3.0590    1.0540 hn        1 MOL      0.117139
     50 H22        -1.7860    1.5750    0.3010 h1        1 MOL     -0.013123
     51 H23        -0.7440   -0.0700   -1.1230 hc        1 MOL      0.014424
     52 H24         0.7470    0.1880   -0.3390 hc        1 MOL      0.014424
     53 N5         -2.6930   -0.2830    1.8220 n         1 MOL     -0.359371
     54 C17        -3.6620    0.8180    1.8160 c3        1 MOL     -0.035403
     55 C18        -4.8040    0.6180    2.8310 c         1 MOL      0.515605
     56 O9         -4.7430   -0.2590    3.7050 o         1 MOL     -0.553437
     57 H25        -2.8780   -1.1360    2.3240 hn        1 MOL      0.288995
     58 H26        -4.0970    0.9130    0.8320 h1        1 MOL      0.109114
     59 H27        -3.1770    1.7920    1.9240 h1        1 MOL      0.109114
     60 N6         -5.8320    1.4590    2.8100 n         1 MOL     -0.390877
     61 C19        -5.9530    2.7400    2.0500 c3        1 MOL     -0.165441
     62 C20        -7.0570    2.5660    0.9390 c         1 MOL      0.488284
     63 O10        -7.9570    1.6940    1.0300 o         1 MOL     -0.416135
     64 C21        -6.4290    3.8020    3.1070 c3        1 MOL      0.017286
     65 C22        -7.5310    3.4330    4.0710 c         1 MOL      0.691278
     66 O11        -7.5530    2.2980    4.6280 o         1 MOL     -0.672750
     67 O12        -8.2620    4.3920    4.3770 o         1 MOL     -0.672750
     68 H28        -6.5180    1.2780    3.5340 hn        1 MOL      0.317871
     69 H29        -5.0280    3.0170    1.5530 h1        1 MOL      0.032338
     70 H30        -6.7670    4.6710    2.5420 hc        1 MOL     -0.012257
     71 H31        -5.6540    4.2470    3.7290 hc        1 MOL     -0.012257
     72 N7         -6.8680    3.3370   -0.2000 n         1 MOL     -0.347061
     73 C23        -7.4380    2.9390   -1.4360 c3        1 MOL     -0.262429
     74 C24        -6.9170    1.6190   -2.0290 c         1 MOL      0.476308
     75 O13        -7.5810    1.0280   -2.9330 o         1 MOL     -0.549009
     76 H32        -6.2050    4.0980   -0.1850 hn        1 MOL      0.266050
     77 H33        -7.3940    3.7170   -2.1930 h1        1 MOL      0.152474
     78 H34        -8.5160    2.7770   -1.3690 h1        1 MOL      0.152474
     79 N8         -5.7700    1.1260   -1.6240 n         1 MOL     -0.315629
     80 C25        -5.1630   -0.1730   -1.9670 c3        1 MOL      0.118441
     81 C26        -5.4470   -1.1840   -0.8660 c         1 MOL      0.699897
     82 O14        -5.9660   -0.9310    0.2320 o         1 MOL     -0.495090
     83 C27        -3.6450    0.0130   -2.0100 c3        1 MOL      0.068915
     84 C28        -3.2130    0.6200   -3.3860 c3        1 MOL     -0.093800
     85 O15        -2.9570   -1.2650   -1.9510 oh        1 MOL     -0.486333
     86 H35        -5.3070    1.7150   -0.9450 hn        1 MOL      0.115430
     87 H36        -5.4660   -0.6060   -2.9200 h1        1 MOL      0.093935
     88 H37        -3.3260    0.6720   -1.2020 h1        1 MOL      0.069998
     89 H38        -2.0240   -1.1340   -2.1000 ho        1 MOL      0.363527
     90 H39        -2.2200    1.0530   -3.3100 hc        1 MOL      0.034836
     91 H40        -3.3080   -0.1740   -4.1310 hc        1 MOL      0.034836
     92 H41        -3.8710    1.3930   -3.7830 hc        1 MOL      0.034836
     93 N9         -5.1710   -2.4470   -1.1790 n         1 MOL     -0.690291
     94 C29        -5.2560   -3.6190   -0.3620 c3        1 MOL     -0.078074
     95 C30        -3.9520   -4.4370   -0.2220 c         1 MOL      0.509795
     96 O16        -4.0190   -5.5010    0.3470 o         1 MOL     -0.571336
     97 C31        -6.5430   -4.5280   -0.7460 c3        1 MOL      0.262699
     98 C32        -6.3920   -5.1080   -2.1730 c3        1 MOL     -0.130945
     99 C33        -7.9300   -3.7880   -0.6660 c3        1 MOL     -0.368631
    100 C34        -7.2340   -6.4150   -2.4130 c3        1 MOL     -0.033822
    101 H42        -4.6650   -2.5270   -2.0540 hn        1 MOL      0.300895
    102 H43        -5.3890   -3.2980    0.6690 h1        1 MOL      0.136805
    103 H44        -6.5910   -5.2930    0.0180 hc        1 MOL     -0.009847
    104 H45        -5.3380   -5.3380   -2.3140 hc        1 MOL      0.036890
    105 H46        -6.7360   -4.4000   -2.9370 hc        1 MOL      0.036890
    106 H47        -8.0380   -3.7030    0.4120 hc        1 MOL      0.109584
    107 H48        -7.7510   -2.8400   -1.1610 hc        1 MOL      0.109584
    108 H49        -8.7990   -4.2970   -1.0850 hc        1 MOL      0.109584
    109 H50        -7.0570   -6.7730   -3.4270 hc        1 MOL      0.014358
    110 H51        -6.9660   -7.2510   -1.7760 hc        1 MOL      0.014358
    111 H52        -8.3070   -6.3130   -2.2490 hc        1 MOL      0.014358
    112 N10        -2.8800   -4.0760   -0.8820 n         1 MOL     -0.082589
    113 C35        -1.6220   -4.8030   -0.9030 c3        1 MOL     -0.315861
    114 C36        -0.4210   -3.8980   -0.7550 c         1 MOL      0.624320
    115 O17        -0.5440   -2.6660   -0.9730 o         1 MOL     -0.447179
    116 C37        -1.4790   -5.6660   -2.1540 c3        1 MOL      0.425020
    117 C38        -1.1270   -4.9700   -3.4030 c3        1 MOL     -0.204600
    118 O18        -2.7400   -6.3220   -2.3930 oh        1 MOL     -0.623143
    119 H53        -2.8510   -3.1330   -1.2360 hn        1 MOL      0.106717
    120 H54        -1.5370   -5.4600   -0.0370 h1        1 MOL      0.093567
    121 H55        -0.6640   -6.3520   -1.9390 h1        1 MOL     -0.008808
    122 H56        -3.4160   -5.9230   -1.8420 ho        1 MOL      0.375787
    123 H57        -1.7130   -4.0610   -3.5510 hc        1 MOL      0.053479
    124 H58        -0.0560   -4.7500   -3.4270 hc        1 MOL      0.053479
    125 H59        -1.4020   -5.6660   -4.1930 hc        1 MOL      0.053479
    126 N11         0.7590   -4.3610   -0.3570 n         1 MOL     -0.492106
    127 C39         1.9430   -3.5460   -0.2210 c3        1 MOL      0.008849
    128 C40         2.4820   -3.0460   -1.5900 c         1 MOL      0.324260
    129 O19         2.1690   -3.4590   -2.6750 o         1 MOL     -0.431846
    130 C41         3.1130   -4.3450    0.3750 c3        1 MOL      0.111594
    131 C42         3.3750   -5.5850   -0.3830 c3        1 MOL     -0.432753
    132 O20         2.8810   -4.6760    1.7980 oh        1 MOL     -0.697185
    133 H60         0.7250   -5.2390    0.1340 hn        1 MOL      0.288821
    134 H61         1.7490   -2.6760    0.4110 h1        1 MOL      0.171403
    135 H62         4.0420   -3.7700    0.4170 h1        1 MOL      0.165700
    136 H63         3.5390   -5.3520    1.9860 ho        1 MOL      0.449736
    137 H64         3.4530   -5.3140   -1.4420 hc        1 MOL      0.133220
    138 H65         4.2270   -6.1220    0.0370 hc        1 MOL      0.133220
    139 H66         2.5910   -6.3420   -0.2860 hc        1 MOL      0.133220
    140 N12         3.2490   -1.9300   -1.5130 n         1 MOL     -0.129885
    141 C43         3.8160   -1.1830   -2.6340 c3        1 MOL     -0.189964
    142 C44         4.1610    0.3160   -2.4650 c         1 MOL      0.655373
    143 O21         4.8090    0.8860   -3.3240 o         1 MOL     -0.625078
    144 C45         5.0410   -2.0080   -3.1920 c3        1 MOL     -0.122164
    145 C46         6.2780   -2.0990   -2.2850 c3        1 MOL      0.060566
    146 C47         7.2660   -2.8060   -3.1400 c3        1 MOL      0.038387
    147 C48         8.5760   -3.1790   -2.5030 c3        1 MOL      0.108069
    148 N13         9.4010   -2.0080   -2.2970 n4        1 MOL     -0.485378
    149 H67         3.3820   -1.6340   -0.5540 hn        1 MOL      0.125791
    150 H68         3.1530   -1.3130   -3.4970 h1        1 MOL      0.131076
    151 H69         5.3530   -1.6630   -4.1700 hc        1 MOL      0.068053
    152 H70         4.6920   -3.0240   -3.3940 hc        1 MOL      0.068053
    153 H71         6.1310   -2.6110   -1.3230 hc        1 MOL     -0.015928
    154 H72         6.7260   -1.1580   -1.9540 hc        1 MOL     -0.015928
    155 H73         7.4100   -2.2770   -4.0730 hc        1 MOL      0.011759
    156 H74         6.9260   -3.7870   -3.4910 hc        1 MOL      0.011759
    157 H75         9.1020   -3.8340   -3.1830 hx        1 MOL      0.043951
    158 H76         8.4030   -3.6280   -1.5310 hx        1 MOL      0.043951
    159 H77         8.9140   -1.3370   -1.7310 hn        1 MOL      0.362473
    160 H78        10.1550   -2.4180   -1.7520 hn        1 MOL      0.362473
    161 H79         9.6830   -1.6330   -3.1940 hn        1 MOL      0.362473
    162 N14         3.9610    0.9720   -1.3370 n         1 MOL     -0.286646
    163 C49         4.2570    2.3870   -1.2080 c3        1 MOL     -0.167582
    164 C50         5.7490    2.6810   -0.9440 c         1 MOL      0.461125
    165 O22         6.3870    1.9850   -0.1380 o         1 MOL     -0.487578
    166 C51         3.3330    2.8400   -0.0380 c3        1 MOL      0.918836
    167 C52         3.3990    4.2910    0.4030 c3        1 MOL     -0.299290
    168 C53         2.9660    5.2750   -0.6670 c         1 MOL      0.646370
    169 O23         3.7990    5.8860   -1.4420 o         1 MOL     -0.739639
    170 O24         1.7710    5.5860   -0.7660 o         1 MOL     -0.739639
    171 H80         3.3070    0.5190   -0.7090 hn        1 MOL      0.262028
    172 H81         3.9010    2.9670   -2.0620 h1        1 MOL      0.076662
    173 H82         3.4710    2.2250    0.8550 hc        1 MOL     -0.321978
    174 H83         2.3140    2.6690   -0.3640 hc        1 MOL     -0.321978
    175 H84         4.4490    4.4240    0.6770 hc        1 MOL      0.082000
    176 H85         2.8220    4.4100    1.3200 hc        1 MOL      0.082000
    177 N15         6.2910    3.6840   -1.6630 n         1 MOL     -0.316269
    178 C54         7.7280    4.0850   -1.5050 c3        1 MOL     -0.266249
    179 H86         8.3680    3.3300   -1.9600 h1        1 MOL      0.117033
    180 H87         7.8930    5.0450   -1.9940 h1        1 MOL      0.117033
    181 H88         7.9660    4.1710   -0.4450 h1        1 MOL      0.117033
    182 H89         5.7500    4.2720   -2.2830 hn        1 MOL      0.338613
    183 Ca1        -0.5700    5.4740   -1.6190 Ca        1 MOL      1.672725
    184 O25         0.6300    4.3090   -3.7270 oh        1 MOL     -0.822606
    185 H90         0.4730    3.3790   -3.5890 ho        1 MOL      0.410197
    186 H91         1.0090    4.3560   -4.6140 ho        1 MOL      0.410197
    187 O26         1.4230    7.4400   -3.0900 oh        1 MOL     -0.822606
    188 H92         1.1450    8.0900   -2.4500 ho        1 MOL      0.410197
    189 H93         1.9840    6.8420   -2.6110 ho        1 MOL      0.410197
    190 O27        -2.4220    4.5480   -3.1250 oh        1 MOL     -0.822606
    191 H94        -2.5900    3.8560   -3.7770 ho        1 MOL      0.410197
    192 H95        -3.1550    5.1510   -3.2370 ho        1 MOL      0.410197
    193 O28        -2.0330    7.4800   -3.0560 oh        1 MOL     -0.822606
    194 H96        -2.7690    8.0920   -2.9730 ho        1 MOL      0.410197
    195 H97        -1.6150    7.7050   -3.8820 ho        1 MOL      0.410197
@<TRIPOS>BOND
     1    1    2 1   
     2    1    4 1   
     3    1    5 1   
     4    1    6 1   
     5    2    3 2   
     6    2    7 1   
     7    7    8 1   
     8    7   15 1   
     9    8    9 1   
    10    8   11 1   
    11    8   16 1   
    12    9   10 2   
    13    9   19 1   
    14   11   12 1   
    15   11   17 1   
    16   11   18 1   
    17   12   13 1   
    18   12   14 1   
    19   19   20 1   
    20   19   28 1   
    21   20   21 1   
    22   20   23 1   
    23   20   29 1   
    24   21   22 2   
    25   21   41 1   
    26   23   24 1   
    27   23   30 1   
    28   23   31 1   
    29   24   25 1   
    30   24   32 1   
    31   24   33 1   
    32   25   26 1   
    33   25   34 1   
    34   25   35 1   
    35   26   27 1   
    36   26   36 1   
    37   26   37 1   
    38   27   38 1   
    39   27   39 1   
    40   27   40 1   
    41   41   42 1   
    42   41   49 1   
    43   42   43 1   
    44   42   45 1   
    45   42   50 1   
    46   43   44 2   
    47   43   53 1   
    48   45   46 1   
    49   45   51 1   
    50   45   52 1   
    51   46   47 1   
    52   46   48 1   
    53   53   54 1   
    54   53   57 1   
    55   54   55 1   
    56   54   58 1   
    57   54   59 1   
    58   55   56 2   
    59   55   60 1   
    60   60   61 1   
    61   60   68 1   
    62   61   62 1   
    63   61   64 1   
    64   61   69 1   
    65   62   63 2   
    66   62   72 1   
    67   64   65 1   
    68   64   70 1   
    69   64   71 1   
    70   65   66 1   
    71   65   67 1   
    72   72   73 1   
    73   72   76 1   
    74   73   74 1   
    75   73   77 1   
    76   73   78 1   
    77   74   75 2   
    78   74   79 1   
    79   79   80 1   
    80   79   86 1   
    81   80   81 1   
    82   80   83 1   
    83   80   87 1   
    84   81   82 2   
    85   81   93 1   
    86   83   84 1   
    87   83   85 1   
    88   83   88 1   
    89   84   90 1   
    90   84   91 1   
    91   84   92 1   
    92   85   89 1   
    93   93   94 1   
    94   93  101 1   
    95   94   95 1   
    96   94   97 1   
    97   94  102 1   
    98   95   96 2   
    99   95  112 1   
   100   97   98 1   
   101   97   99 1   
   102   97  103 1   
   103   98  100 1   
   104   98  104 1   
   105   98  105 1   
   106   99  106 1   
   107   99  107 1   
   108   99  108 1   
   109  100  109 1   
   110  100  110 1   
   111  100  111 1   
   112  112  113 1   
   113  112  119 1   
   114  113  114 1   
   115  113  116 1   
   116  113  120 1   
   117  114  115 2   
   118  114  126 1   
   119  116  117 1   
   120  116  118 1   
   121  116  121 1   
   122  117  123 1   
   123  117  124 1   
   124  117  125 1   
   125  118  122 1   
   126  126  127 1   
   127  126  133 1   
   128  127  128 1   
   129  127  130 1   
   130  127  134 1   
   131  128  129 2   
   132  128  140 1   
   133  130  131 1   
   134  130  132 1   
   135  130  135 1   
   136  131  137 1   
   137  131  138 1   
   138  131  139 1   
   139  132  136 1   
   140  140  141 1   
   141  140  149 1   
   142  141  142 1   
   143  141  144 1   
   144  141  150 1   
   145  142  143 2   
   146  142  162 1   
   147  144  145 1   
   148  144  151 1   
   149  144  152 1   
   150  145  146 1   
   151  145  153 1   
   152  145  154 1   
   153  146  147 1   
   154  146  155 1   
   155  146  156 1   
   156  147  148 1   
   157  147  157 1   
   158  147  158 1   
   159  148  159 1   
   160  148  160 1   
   161  148  161 1   
   162  162  163 1   
   163  162  171 1   
   164  163  164 1   
   165  163  166 1   
   166  163  172 1   
   167  164  165 2   
   168  164  177 1   
   169  166  167 1   
   170  166  173 1   
   171  166  174 1   
   172  167  168 1   
   173  167  175 1   
   174  167  176 1   
   175  168  169 1   
   176  168  170 1   
   177  177  178 1   
   178  177  182 1   
   179  178  179 1   
   180  178  180 1   
   181  178  181 1   
   182  184  185 1   
   183  184  186 1   
   184  187  188 1   
   185  187  189 1   
   186  190  191 1   
   187  190  192 1   
   188  193  194 1   
   189  193  195 1   
@<TRIPOS>SUBSTRUCTURE
     1 MOL         1 TEMP              0 ****  ****    0 ROOT
