@<TRIPOS>MOLECULE
MOL
  181   177     1     0     0
SMALL
resp


@<TRIPOS>ATOM
      1 C1          2.4860    6.5620   -1.3960 c3        1 MOL     -0.407910
      2 C2          3.8700    6.3910   -0.7330 c         1 MOL      0.741799
      3 O1          4.0850    6.9680    0.3720 o         1 MOL     -0.623849
      4 H1          1.8700    7.2220   -0.7850 hc        1 MOL      0.098554
      5 H2          2.6090    6.9960   -2.3880 hc        1 MOL      0.098554
      6 H3          2.0010    5.5900   -1.4820 hc        1 MOL      0.098554
      7 N1          4.8000    5.7300   -1.3340 n         1 MOL     -0.682452
      8 C3          6.2020    5.9160   -0.8930 c3        1 MOL      0.538044
      9 C4          6.5820    4.8890    0.2920 c         1 MOL      0.391406
     10 O2          7.7360    4.4400    0.4940 o         1 MOL     -0.450987
     11 C5          7.1440    5.8560   -2.0980 c3        1 MOL     -0.359904
     12 C6          8.5290    6.3660   -1.8980 c         1 MOL      0.719805
     13 O3          8.7320    7.2350   -1.0530 o         1 MOL     -0.731177
     14 O4          9.4960    5.7720   -2.4910 o         1 MOL     -0.731177
     15 H4          4.5480    5.2350   -2.1720 hn        1 MOL      0.310434
     16 H5          6.2700    6.9240   -0.4690 h1        1 MOL     -0.006759
     17 H6          6.6980    6.5080   -2.8430 hc        1 MOL      0.034478
     18 H7          7.2380    4.8390   -2.4750 hc        1 MOL      0.034478
     19 N2          5.5590    4.4900    1.0780 n         1 MOL     -0.452609
     20 C7          5.6620    3.4670    2.0800 c3        1 MOL      0.321868
     21 C8          4.1810    2.9890    2.3810 c         1 MOL      0.495260
     22 O5          3.2050    3.6710    2.1080 o         1 MOL     -0.507593
     23 C9          6.4390    3.9530    3.3360 c3        1 MOL     -0.247801
     24 H8          4.5940    4.6090    0.8020 hn        1 MOL      0.207341
     25 H9          6.2480    2.6120    1.7500 h1        1 MOL     -0.032207
     26 H10         6.6060    3.1540    4.0550 hc        1 MOL      0.060196
     27 H11         7.3820    4.4290    3.0730 hc        1 MOL      0.060196
     28 H12         5.8180    4.6080    3.9460 hc        1 MOL      0.060196
     29 N3          3.9800    1.7050    2.8360 n         1 MOL     -0.480581
     30 C10         5.0430    0.6620    2.9850 c3        1 MOL      0.134406
     31 C11         5.2600    0.0710    1.5900 c         1 MOL      0.508263
     32 O6          4.4430    0.2740    0.6740 o         1 MOL     -0.484650
     33 C12         4.6450   -0.4510    3.9700 c3        1 MOL     -0.350519
     34 C13         3.1810   -0.9800    3.9400 c         1 MOL      0.737189
     35 O7          2.9070   -2.0760    4.4470 o         1 MOL     -0.671115
     36 O8          2.2550   -0.3840    3.2900 o         1 MOL     -0.671115
     37 H13         3.0260    1.3700    2.8500 hn        1 MOL      0.226930
     38 H14         6.0230    1.0140    3.3260 h1        1 MOL      0.064994
     39 H15         4.7870   -0.0760    4.9920 hc        1 MOL      0.091741
     40 H16         5.3410   -1.2810    3.8550 hc        1 MOL      0.091741
     41 N4          6.2830   -0.7160    1.3950 n         1 MOL     -0.540684
     42 C14         6.5400   -1.5740    0.2160 c3        1 MOL      0.331706
     43 C15         7.8220   -1.2910   -0.5930 c         1 MOL      0.431338
     44 O9          8.2720   -0.1640   -0.5570 o         1 MOL     -0.456841
     45 H17         6.8700   -0.7660    2.2120 hn        1 MOL      0.303793
     46 H18         5.6270   -1.5620   -0.3880 h1        1 MOL     -0.026964
     47 H19         6.5940   -2.5880    0.6080 h1        1 MOL     -0.026964
     48 N5          8.3900   -2.2950   -1.3220 n         1 MOL     -0.520545
     49 C16         7.6760   -3.5350   -1.7740 c3        1 MOL      0.032543
     50 C17         6.3780   -3.1310   -2.5750 c         1 MOL      0.724077
     51 O10         6.3300   -2.2960   -3.4480 o         1 MOL     -0.528037
     52 C18         8.6600   -4.4510   -2.6160 c3        1 MOL     -0.499995
     53 C19         9.4900   -5.4510   -1.9200 c         1 MOL      0.836039
     54 N6         10.8080   -5.3830   -1.9540 n         1 MOL     -0.845574
     55 O11         8.9680   -6.3690   -1.3060 o         1 MOL     -0.588031
     56 H20         9.3040   -2.0410   -1.6450 hn        1 MOL      0.323968
     57 H21         7.5630   -4.1230   -0.8600 h1        1 MOL      0.095832
     58 H22         9.3400   -3.8530   -3.2250 hc        1 MOL      0.139499
     59 H23         8.1320   -4.9690   -3.4170 hc        1 MOL      0.139499
     60 H24        11.2550   -4.6040   -2.4150 hn        1 MOL      0.374124
     61 H25        11.3900   -6.0590   -1.4990 hn        1 MOL      0.374124
     62 N7          5.2750   -3.6930   -2.1640 n         1 MOL     -0.519439
     63 C20         3.9710   -3.2660   -2.6640 c3        1 MOL     -0.047945
     64 C21         2.8790   -4.2460   -2.3190 c         1 MOL      0.548906
     65 O12         2.9290   -5.4360   -2.6890 o         1 MOL     -0.528514
     66 H26         5.2700   -4.3180   -1.3700 hn        1 MOL      0.270848
     67 H27         3.9900   -3.0830   -3.7360 h1        1 MOL      0.094786
     68 H28         3.7640   -2.2530   -2.3070 h1        1 MOL      0.094786
     69 N8          1.8290   -3.7470   -1.5860 n         1 MOL     -0.383828
     70 C22         0.6130   -4.4810   -1.1980 c3        1 MOL     -0.232371
     71 C23        -0.5550   -3.4870   -0.8630 c         1 MOL      0.748478
     72 O13        -0.3110   -2.4940   -0.2170 o         1 MOL     -0.610939
     73 C24         0.8770   -5.2330    0.1240 c3        1 MOL      0.532076
     74 C25        -0.3870   -5.7620    0.8590 c3        1 MOL     -0.372200
     75 O14         1.7220   -6.2880   -0.1930 oh        1 MOL     -0.666416
     76 H29         1.9400   -2.7870   -1.2820 hn        1 MOL      0.225580
     77 H30         0.3450   -5.1630   -1.9970 h1        1 MOL      0.108918
     78 H31         1.3920   -4.4830    0.7080 h1        1 MOL     -0.113520
     79 H32         2.3500   -5.9050   -0.8060 ho        1 MOL      0.407708
     80 H33        -1.1640   -6.0790    0.1730 hc        1 MOL      0.114970
     81 H34        -0.0540   -6.5210    1.5700 hc        1 MOL      0.114970
     82 H35        -0.8790   -4.9640    1.4160 hc        1 MOL      0.114970
     83 N9         -1.7710   -3.7180   -1.4330 n         1 MOL     -0.592999
     84 C26        -2.9590   -2.9040   -1.1060 c3        1 MOL      0.009490
     85 C27        -3.5480   -3.3230    0.2080 c         1 MOL      0.329648
     86 O15        -3.8160   -4.4930    0.5100 o         1 MOL     -0.483447
     87 C28        -4.0740   -3.1630   -2.1890 c3        1 MOL      0.076591
     88 C29        -5.3400   -2.2560   -1.9310 c3        1 MOL      0.087759
     89 C30        -3.5560   -2.8240   -3.5980 c3        1 MOL     -0.160852
     90 C31        -6.4630   -2.2140   -2.9480 c3        1 MOL     -0.108932
     91 H36        -1.9000   -4.4850   -2.0750 hn        1 MOL      0.335885
     92 H37        -2.6900   -1.8420   -1.1530 h1        1 MOL      0.137933
     93 H38        -4.3470   -4.2120   -2.1560 hc        1 MOL      0.025616
     94 H39        -5.1680   -1.1850   -1.7880 hc        1 MOL     -0.014224
     95 H40        -5.8190   -2.4640   -0.9720 hc        1 MOL     -0.014224
     96 H41        -2.6210   -3.2860   -3.9190 hc        1 MOL      0.031460
     97 H42        -4.2800   -3.1050   -4.3690 hc        1 MOL      0.031460
     98 H43        -3.4420   -1.7500   -3.6620 hc        1 MOL      0.031460
     99 H44        -7.2850   -1.5840   -2.6190 hc        1 MOL      0.011294
    100 H45        -6.1470   -1.8010   -3.9060 hc        1 MOL      0.011294
    101 H46        -6.8300   -3.2370   -3.0150 hc        1 MOL      0.011294
    102 N10        -3.8940   -2.3010    1.0450 n         1 MOL     -0.329130
    103 C32        -4.7530   -2.4590    2.2080 c3        1 MOL      0.157730
    104 C33        -6.0160   -1.5610    2.2100 c         1 MOL      0.249766
    105 O16        -6.8950   -1.7290    3.0240 o         1 MOL     -0.520294
    106 C34        -3.9510   -2.1290    3.4760 c3        1 MOL     -0.091203
    107 C35        -2.5580   -2.8450    3.4440 c         1 MOL      0.729316
    108 O17        -2.4460   -3.9720    3.9360 o         1 MOL     -0.710150
    109 O18        -1.5320   -2.2250    3.1330 o         1 MOL     -0.710150
    110 H47        -3.8430   -1.3470    0.7290 hn        1 MOL      0.128797
    111 H48        -5.0740   -3.4960    2.3130 h1        1 MOL      0.091054
    112 H49        -4.5190   -2.4950    4.3280 hc        1 MOL      0.004858
    113 H50        -3.7520   -1.0540    3.5250 hc        1 MOL      0.004858
    114 N11        -6.2070   -0.6690    1.2430 n         1 MOL     -0.137347
    115 C36        -7.4720    0.1260    0.9280 c3        1 MOL      0.123219
    116 C37        -7.1780    1.5170    0.3250 c         1 MOL      0.271182
    117 O19        -7.3170    1.7560   -0.8650 o         1 MOL     -0.486354
    118 C38        -8.4090   -0.8150    0.0400 c3        1 MOL     -0.409707
    119 C39        -9.8010   -0.3340   -0.5060 ca        1 MOL      0.275710
    120 C40       -10.8650   -0.2270    0.4130 ca        1 MOL     -0.237114
    121 C41       -10.0670   -0.2600   -1.8970 ca        1 MOL     -0.237114
    122 C42       -12.0950    0.2910   -0.0110 ca        1 MOL     -0.093687
    123 C43       -11.3570    0.1320   -2.3220 ca        1 MOL     -0.093687
    124 C44       -12.3720    0.3980   -1.3950 ca        1 MOL     -0.148061
    125 H51        -5.4140   -0.3640    0.7100 hn        1 MOL      0.317407
    126 H52        -7.9750    0.2210    1.8880 h1        1 MOL      0.043460
    127 H53        -8.6460   -1.7120    0.6110 hc        1 MOL      0.143255
    128 H54        -7.8130   -0.9970   -0.8520 hc        1 MOL      0.143255
    129 H55       -10.7620   -0.3110    1.4800 ha        1 MOL      0.140161
    130 H56        -9.2410   -0.4180   -2.5760 ha        1 MOL      0.140161
    131 H57       -12.7170    0.5840    0.8100 ha        1 MOL      0.102976
    132 H58       -11.5370    0.3270   -3.3660 ha        1 MOL      0.102976
    133 H59       -13.3720    0.6560   -1.7110 ha        1 MOL      0.098708
    134 N12        -6.3420    2.3250    1.0210 n         1 MOL      0.024991
    135 C45        -6.1890    3.7530    0.6360 c3        1 MOL     -0.004759
    136 C46        -5.3600    4.0450   -0.6880 c         1 MOL      0.249770
    137 O20        -5.5080    5.1210   -1.2320 o         1 MOL     -0.469516
    138 C47        -5.3790    4.4090    1.7570 c3        1 MOL     -0.248163
    139 C48        -5.8810    3.5640    2.9560 c3        1 MOL     -0.021422
    140 C49        -5.9960    2.1060    2.3700 c3        1 MOL      0.052266
    141 H60        -7.1650    4.2410    0.6370 h1        1 MOL      0.094940
    142 H61        -4.3040    4.2100    1.7270 hc        1 MOL      0.106852
    143 H62        -5.6700    5.4520    1.8560 hc        1 MOL      0.106852
    144 H63        -5.2410    3.4770    3.8320 hc        1 MOL      0.012739
    145 H64        -6.8520    3.8970    3.2950 hc        1 MOL      0.012739
    146 H65        -5.0830    1.5250    2.4460 h1        1 MOL      0.020337
    147 H66        -6.8040    1.7000    2.9820 h1        1 MOL      0.020337
    148 N13        -4.6360    3.0250   -1.1300 n         1 MOL      0.002237
    149 C50        -3.7950    2.9520   -2.3530 c3        1 MOL     -0.286719
    150 C51        -4.6170    3.2270   -3.6300 c         1 MOL      0.549733
    151 O21        -4.2150    4.1380   -4.3510 o         1 MOL     -0.529503
    152 C52        -2.9810    1.6830   -2.4340 c3        1 MOL      0.218650
    153 C53        -2.0850    1.4930   -1.1730 c3        1 MOL     -0.203507
    154 C54        -2.7900    0.7310   -0.0210 c         1 MOL      0.759704
    155 O22        -2.0120    0.1840    0.7760 o         1 MOL     -0.709303
    156 O23        -4.0470    0.6440    0.0580 o         1 MOL     -0.709303
    157 H67        -4.6710    2.1890   -0.5740 hn        1 MOL      0.111606
    158 H68        -3.0630    3.7670   -2.3500 h1        1 MOL      0.117821
    159 H69        -2.3980    1.8120   -3.3490 hc        1 MOL     -0.042873
    160 H70        -3.6790    0.8630   -2.6280 hc        1 MOL     -0.042873
    161 H71        -1.7480    2.4570   -0.8060 hc        1 MOL      0.044273
    162 H72        -1.1890    0.9540   -1.4840 hc        1 MOL      0.044273
    163 N14        -5.7760    2.5240   -3.8120 n         1 MOL     -0.323437
    164 C55        -6.7330    2.8120   -4.9250 c3        1 MOL     -0.133868
    165 H73        -7.5530    3.4250   -4.5500 h1        1 MOL      0.081115
    166 H74        -6.2150    3.3470   -5.7210 h1        1 MOL      0.081115
    167 H75        -7.1300    1.8750   -5.3150 h1        1 MOL      0.081115
    168 H76        -5.9440    1.8220   -3.1040 hn        1 MOL      0.278691
    169 Ca1         0.0640   -0.7130    1.8610 Ca        1 MOL      1.715555
    170 O24        -0.1920    0.6870    4.0740 oh        1 MOL     -0.839110
    171 H77        -0.4490    1.5920    4.1720 ho        1 MOL      0.407982
    172 H78         0.6480    0.6170    4.5330 ho        1 MOL      0.407982
    173 O25         1.0180   -2.9330    2.8240 oh        1 MOL     -0.839110
    174 H79         1.7590   -2.8840    3.4200 ho        1 MOL      0.407982
    175 H80         0.4630   -3.6280    3.1760 ho        1 MOL      0.407982
    176 O26         0.7090    1.8200    1.4180 oh        1 MOL     -0.839110
    177 H81         0.1720    2.6030    1.5150 ho        1 MOL      0.407982
    178 H82         1.6080    2.1400    1.3820 ho        1 MOL      0.407982
    179 O27         2.3720   -1.1180    0.5920 oh        1 MOL     -0.839110
    180 H83         2.7120   -1.9790    0.8110 ho        1 MOL      0.407982
    181 H84         3.1370   -0.5470    0.5610 ho        1 MOL      0.407982
@<TRIPOS>BOND
     1    1    2 1   
     2    1    4 1   
     3    1    5 1   
     4    1    6 1   
     5    2    3 2   
     6    2    7 1   
     7    7    8 1   
     8    7   15 1   
     9    8    9 1   
    10    8   11 1   
    11    8   16 1   
    12    9   10 2   
    13    9   19 1   
    14   11   12 1   
    15   11   17 1   
    16   11   18 1   
    17   12   13 1   
    18   12   14 1   
    19   19   20 1   
    20   19   24 1   
    21   20   21 1   
    22   20   23 1   
    23   20   25 1   
    24   21   22 2   
    25   21   29 1   
    26   23   26 1   
    27   23   27 1   
    28   23   28 1   
    29   29   30 1   
    30   29   37 1   
    31   30   31 1   
    32   30   33 1   
    33   30   38 1   
    34   31   32 2   
    35   31   41 1   
    36   33   34 1   
    37   33   39 1   
    38   33   40 1   
    39   34   35 1   
    40   34   36 1   
    41   41   42 1   
    42   41   45 1   
    43   42   43 1   
    44   42   46 1   
    45   42   47 1   
    46   43   44 2   
    47   43   48 1   
    48   48   49 1   
    49   48   56 1   
    50   49   50 1   
    51   49   52 1   
    52   49   57 1   
    53   50   51 2   
    54   50   62 1   
    55   52   53 1   
    56   52   58 1   
    57   52   59 1   
    58   53   54 1   
    59   53   55 2   
    60   54   60 1   
    61   54   61 1   
    62   62   63 1   
    63   62   66 1   
    64   63   64 1   
    65   63   67 1   
    66   63   68 1   
    67   64   65 2   
    68   64   69 1   
    69   69   70 1   
    70   69   76 1   
    71   70   71 1   
    72   70   73 1   
    73   70   77 1   
    74   71   72 2   
    75   71   83 1   
    76   73   74 1   
    77   73   75 1   
    78   73   78 1   
    79   74   80 1   
    80   74   81 1   
    81   74   82 1   
    82   75   79 1   
    83   83   84 1   
    84   83   91 1   
    85   84   85 1   
    86   84   87 1   
    87   84   92 1   
    88   85   86 2   
    89   85  102 1   
    90   87   88 1   
    91   87   89 1   
    92   87   93 1   
    93   88   90 1   
    94   88   94 1   
    95   88   95 1   
    96   89   96 1   
    97   89   97 1   
    98   89   98 1   
    99   90   99 1   
   100   90  100 1   
   101   90  101 1   
   102  102  103 1   
   103  102  110 1   
   104  103  104 1   
   105  103  106 1   
   106  103  111 1   
   107  104  105 2   
   108  104  114 1   
   109  106  107 1   
   110  106  112 1   
   111  106  113 1   
   112  107  108 1   
   113  107  109 1   
   114  114  115 1   
   115  114  125 1   
   116  115  116 1   
   117  115  118 1   
   118  115  126 1   
   119  116  117 2   
   120  116  134 1   
   121  118  119 1   
   122  118  127 1   
   123  118  128 1   
   124  119  120 ar  
   125  119  121 ar  
   126  120  122 ar  
   127  120  129 1   
   128  121  123 ar  
   129  121  130 1   
   130  122  124 ar  
   131  122  131 1   
   132  123  124 ar  
   133  123  132 1   
   134  124  133 1   
   135  134  135 1   
   136  134  140 1   
   137  135  136 1   
   138  135  138 1   
   139  135  141 1   
   140  136  137 2   
   141  136  148 1   
   142  138  139 1   
   143  138  142 1   
   144  138  143 1   
   145  139  140 1   
   146  139  144 1   
   147  139  145 1   
   148  140  146 1   
   149  140  147 1   
   150  148  149 1   
   151  148  157 1   
   152  149  150 1   
   153  149  152 1   
   154  149  158 1   
   155  150  151 2   
   156  150  163 1   
   157  152  153 1   
   158  152  159 1   
   159  152  160 1   
   160  153  154 1   
   161  153  161 1   
   162  153  162 1   
   163  154  155 1   
   164  154  156 1   
   165  163  164 1   
   166  163  168 1   
   167  164  165 1   
   168  164  166 1   
   169  164  167 1   
   170  170  171 1   
   171  170  172 1   
   172  173  174 1   
   173  173  175 1   
   174  176  177 1   
   175  176  178 1   
   176  179  180 1   
   177  179  181 1   
@<TRIPOS>SUBSTRUCTURE
     1 MOL         1 TEMP              0 ****  ****    0 ROOT
