@<TRIPOS>MOLECULE
MOL
  182   178     1     0     0
SMALL
resp


@<TRIPOS>ATOM
      1 C1          0.2080   -2.7070    6.2190 c3        1 MOL     -0.308388
      2 C2          0.3780   -2.9110    4.6920 c         1 MOL      0.773759
      3 O1         -0.6000   -3.1140    3.9230 o         1 MOL     -0.617253
      4 H1          0.7460   -3.4900    6.7520 hc        1 MOL      0.091367
      5 H2          0.6080   -1.7330    6.5020 hc        1 MOL      0.091367
      6 H3         -0.8510   -2.7540    6.4760 hc        1 MOL      0.091367
      7 N1          1.6230   -2.6920    4.2030 n         1 MOL     -0.649818
      8 C3          2.0830   -2.6420    2.7840 c3        1 MOL     -0.034489
      9 C4          2.3040   -4.0090    2.1110 c         1 MOL      0.890661
     10 O2          2.6410   -4.9560    2.7990 o         1 MOL     -0.599931
     11 C5          3.3070   -1.6970    2.7920 c3        1 MOL     -0.337257
     12 C6          3.5450   -1.1930    1.3890 c         1 MOL      0.776644
     13 O3          3.9080   -0.0540    1.1980 o         1 MOL     -0.750028
     14 O4          3.3220   -1.8120    0.3080 o         1 MOL     -0.750028
     15 H4          2.3850   -2.4210    4.8180 hn        1 MOL      0.340465
     16 H5          1.2810   -2.1720    2.2080 h1        1 MOL      0.115200
     17 H6          4.1100   -2.2550    3.2740 hc        1 MOL      0.126091
     18 H7          3.0950   -0.8320    3.4190 hc        1 MOL      0.126091
     19 N2          1.9200   -4.1330    0.8430 n         1 MOL     -0.785487
     20 C7          1.8390   -5.4130    0.0600 c3        1 MOL      0.133257
     21 C8          3.0330   -5.5300   -0.8720 c         1 MOL      0.446174
     22 O5          3.3810   -6.5860   -1.3820 o         1 MOL     -0.589309
     23 C9          0.4310   -5.5200   -0.5310 c3        1 MOL      0.139814
     24 C10        -0.0120   -6.9110   -0.9600 c3        1 MOL     -0.078296
     25 C11        -1.4720   -6.9570   -1.3050 c3        1 MOL      0.104031
     26 C12        -1.7460   -8.3030   -1.9770 c3        1 MOL      0.001236
     27 N3         -3.1930   -8.5250   -2.2920 n4        1 MOL     -0.215908
     28 H8          1.8320   -3.2350    0.3900 hn        1 MOL      0.344040
     29 H9          1.9470   -6.2740    0.7200 h1        1 MOL      0.074193
     30 H10         0.4520   -4.9130   -1.4400 hc        1 MOL     -0.011168
     31 H11        -0.3260   -5.1910    0.1820 hc        1 MOL     -0.011168
     32 H12         0.0370   -7.6600   -0.1670 hc        1 MOL      0.020688
     33 H13         0.5790   -7.1670   -1.8460 hc        1 MOL      0.020688
     34 H14        -1.7510   -6.1670   -2.0090 hc        1 MOL      0.002372
     35 H15        -2.0160   -6.7320   -0.3890 hc        1 MOL      0.002372
     36 H16        -1.3290   -9.0670   -1.3180 hx        1 MOL      0.077770
     37 H17        -1.1520   -8.3680   -2.8910 hx        1 MOL      0.077770
     38 H18        -3.6160   -7.8220   -2.8720 hn        1 MOL      0.233675
     39 H19        -3.3230   -9.4640   -2.6380 hn        1 MOL      0.233675
     40 H20        -3.7480   -8.4700   -1.4460 hn        1 MOL      0.233675
     41 N4          3.6450   -4.4010   -1.0870 n         1 MOL     -0.024903
     42 C13         4.8800   -4.2990   -1.9210 c3        1 MOL      0.108894
     43 C14         6.0860   -3.7250   -1.1250 c         1 MOL      0.298230
     44 O6          7.1970   -3.7050   -1.6780 o         1 MOL     -0.495772
     45 C15         4.5460   -3.4250   -3.1730 c3        1 MOL     -0.472078
     46 C16         4.1800   -1.9130   -2.8940 c         1 MOL      0.918503
     47 O7          4.9390   -1.2590   -2.1730 o         1 MOL     -0.787493
     48 O8          3.0780   -1.4620   -3.2930 o         1 MOL     -0.787493
     49 H21         3.2670   -3.5520   -0.7020 hn        1 MOL     -0.034346
     50 H22         5.1430   -5.2960   -2.2410 h1        1 MOL      0.107961
     51 H23         3.7480   -3.9350   -3.6970 hc        1 MOL      0.122025
     52 H24         5.4500   -3.3480   -3.7750 hc        1 MOL      0.122025
     53 N5          5.7810   -3.2110    0.0850 n         1 MOL     -0.126154
     54 C17         6.9170   -2.8400    0.9590 c3        1 MOL     -0.213876
     55 C18         7.5220   -1.3590    0.9130 c         1 MOL      0.556753
     56 O9          8.3400   -1.0020    1.7510 o         1 MOL     -0.513343
     57 H25         4.8160   -3.1130    0.3480 hn        1 MOL      0.113042
     58 H26         7.7980   -3.4190    0.6840 h1        1 MOL      0.115151
     59 H27         6.6720   -3.0840    1.9920 h1        1 MOL      0.115151
     60 N6          6.9720   -0.4920    0.0190 n         1 MOL     -0.375327
     61 C19         7.5110    0.8790   -0.2310 c3        1 MOL     -0.034985
     62 C20         6.4280    2.0080   -0.4210 c         1 MOL      0.672539
     63 O10         5.3320    1.7050   -0.8980 o         1 MOL     -0.592972
     64 C21         8.5330    0.9240   -1.4060 c3        1 MOL     -0.142062
     65 C22         9.6540   -0.0580   -1.2890 c         1 MOL      0.609894
     66 N7          9.5770   -1.2580   -1.8070 n         1 MOL     -0.767437
     67 O11        10.6440    0.2940   -0.6440 o         1 MOL     -0.547627
     68 H28         6.2600   -0.7810   -0.6300 hn        1 MOL      0.409465
     69 H29         8.0740    1.1340    0.6590 h1        1 MOL      0.072070
     70 H30         8.8210    1.9510   -1.6130 hc        1 MOL      0.036125
     71 H31         7.9320    0.6580   -2.2690 hc        1 MOL      0.036125
     72 H32         8.8490   -1.5820   -2.4340 hn        1 MOL      0.372941
     73 H33        10.3720   -1.8590   -1.6490 hn        1 MOL      0.372941
     74 N8          6.7100    3.2840    0.0200 n         1 MOL     -0.527130
     75 C23         6.0130    4.5470   -0.4150 c3        1 MOL     -0.024304
     76 C24         4.6800    4.8630    0.3300 c         1 MOL      0.762537
     77 O12         4.6750    4.9480    1.5480 o         1 MOL     -0.547132
     78 H34         7.5910    3.3940    0.5060 hn        1 MOL      0.339916
     79 H35         5.7610    4.5870   -1.4690 h1        1 MOL      0.066480
     80 H36         6.5310    5.4750   -0.1740 h1        1 MOL      0.066480
     81 N9          3.5320    5.0580   -0.3740 n         1 MOL     -0.838579
     82 C25         2.1580    5.1040    0.2470 c3        1 MOL      0.470012
     83 C26         1.7230    3.6260    0.5880 c         1 MOL      0.348293
     84 O13         2.4300    2.6820    0.2180 o         1 MOL     -0.460210
     85 C27         1.1360    5.8960   -0.6170 c3        1 MOL     -0.103970
     86 C28         1.3470    7.4070   -0.6970 ca        1 MOL     -0.000986
     87 C29         1.6020    8.0230   -1.9100 ca        1 MOL     -0.093452
     88 C30         1.0900    8.1750    0.4720 ca        1 MOL     -0.093452
     89 C31         1.6270    9.4110   -2.0620 ca        1 MOL     -0.294200
     90 C32         1.1660    9.5620    0.2860 ca        1 MOL     -0.294200
     91 C33         1.4430   10.1450   -0.9640 ca        1 MOL      0.393752
     92 O14         1.3170   11.4980   -1.1050 oh        1 MOL     -0.498314
     93 H37         3.4510    4.7460   -1.3320 hn        1 MOL      0.331436
     94 H38         2.2310    5.6840    1.1710 h1        1 MOL      0.032723
     95 H39         0.0760    5.7440   -0.3780 hc        1 MOL      0.027014
     96 H40         1.1610    5.5130   -1.6350 hc        1 MOL      0.027014
     97 H41         1.6430    7.3660   -2.7710 ha        1 MOL      0.107295
     98 H42         0.8470    7.6800    1.4000 ha        1 MOL      0.107295
     99 H43         1.6520    9.8820   -3.0390 ha        1 MOL      0.164917
    100 H44         0.8040   10.1470    1.1150 ha        1 MOL      0.164917
    101 H45         1.4080   11.7560   -2.0260 ho        1 MOL      0.361854
    102 N10         0.6940    3.4880    1.3850 n         1 MOL     -0.616373
    103 C34         0.1030    2.2540    1.9660 c3        1 MOL      0.110921
    104 C35        -0.1720    1.0760    1.0180 c         1 MOL      0.457485
    105 O15         0.7390    0.4990    0.4170 o         1 MOL     -0.416996
    106 C36         0.8960    1.7080    3.2420 c3        1 MOL      0.363702
    107 C37         0.1070    0.6540    4.1110 c3        1 MOL     -0.316719
    108 C38         1.5170    2.7660    4.1000 c3        1 MOL     -0.257734
    109 C39        -1.0080    1.2060    4.9670 c3        1 MOL     -0.117674
    110 H46         0.1700    4.3290    1.5510 hn        1 MOL      0.320416
    111 H47        -0.8770    2.5920    2.3000 h1        1 MOL      0.047078
    112 H48         1.7880    1.1590    2.9160 hc        1 MOL      0.010418
    113 H49         0.8490    0.1330    4.7310 hc        1 MOL      0.093619
    114 H50        -0.3320   -0.1580    3.5350 hc        1 MOL      0.093619
    115 H51         2.2090    3.4040    3.5480 hc        1 MOL      0.062998
    116 H52         0.7990    3.4720    4.4990 hc        1 MOL      0.062998
    117 H53         2.1180    2.2560    4.8570 hc        1 MOL      0.062998
    118 H54        -0.6190    1.8780    5.7350 hc        1 MOL      0.039240
    119 H55        -1.7730    1.8260    4.4850 hc        1 MOL      0.039240
    120 H56        -1.5150    0.3880    5.4840 hc        1 MOL      0.039240
    121 N11        -1.4570    0.6450    0.9720 n         1 MOL     -0.523545
    122 C40        -1.8170   -0.5980    0.2710 c3        1 MOL     -0.045643
    123 C41        -3.2670   -0.8380   -0.1470 c         1 MOL      0.646447
    124 O16        -3.5240   -1.8080   -0.8430 o         1 MOL     -0.574418
    125 C42        -1.3710   -1.7770    1.1190 c3        1 MOL      0.656642
    126 O17        -2.1960   -1.9260    2.2410 oh        1 MOL     -0.696990
    127 H57        -2.1020    0.9460    1.6980 hn        1 MOL      0.285760
    128 H58        -1.2830   -0.6070   -0.6800 h1        1 MOL      0.031901
    129 H59        -0.3460   -1.5250    1.3980 h1        1 MOL     -0.132174
    130 H60        -1.3770   -2.7060    0.5510 h1        1 MOL     -0.132174
    131 H61        -1.7620   -2.4430    2.9160 ho        1 MOL      0.429735
    132 N12        -4.2400   -0.0660    0.4350 n         1 MOL     -0.662840
    133 C43        -5.5860   -0.2500   -0.0330 c3        1 MOL      0.144328
    134 C44        -5.7910    0.3130   -1.4510 c         1 MOL      0.644686
    135 O18        -4.9870    1.0860   -2.0040 o         1 MOL     -0.567699
    136 C45        -6.4670    0.4360    1.0860 c3        1 MOL     -0.294273
    137 H62        -4.0020    0.7000    1.0480 hn        1 MOL      0.350605
    138 H63        -5.8080   -1.3210   -0.0690 h1        1 MOL      0.129780
    139 H64        -6.6220    1.4890    0.8370 hc        1 MOL      0.098609
    140 H65        -7.4160   -0.0950    1.0280 hc        1 MOL      0.098609
    141 H66        -6.1350    0.4160    2.1240 hc        1 MOL      0.098609
    142 N13        -6.9600    0.0790   -2.1080 n         1 MOL     -0.714512
    143 C46        -8.1580   -0.6750   -1.7500 c3        1 MOL      0.463352
    144 C47        -9.2740   -0.0760   -2.5950 c         1 MOL      0.507428
    145 O19        -9.0910    0.0840   -3.7610 o         1 MOL     -0.529949
    146 C48        -7.8960   -2.1020   -2.1380 c3        1 MOL     -0.353398
    147 H67        -6.9830    0.4630   -3.0420 hn        1 MOL      0.332689
    148 H68        -8.2080   -0.6400   -0.6630 h1        1 MOL     -0.014787
    149 H69        -7.1370   -2.4260   -1.4260 hc        1 MOL      0.084605
    150 H70        -8.8600   -2.5790   -1.9770 hc        1 MOL      0.084605
    151 H71        -7.6480   -2.1400   -3.1990 hc        1 MOL      0.084605
    152 N14       -10.4890    0.2740   -2.0680 n         1 MOL     -0.525451
    153 C49       -10.9090    0.1210   -0.7000 c3        1 MOL     -0.017029
    154 C50       -10.4290    1.3410    0.1450 c         1 MOL      0.360647
    155 O20        -9.8550    1.0660    1.2340 o         1 MOL     -0.501628
    156 C51       -12.4140    0.1160   -0.6360 c3        1 MOL      0.073015
    157 C52       -12.9160    0.1120    0.8160 c3        1 MOL     -0.272800
    158 C53       -14.3940   -0.3960    0.8720 c         1 MOL      0.670306
    159 O21       -14.7230   -1.4550    0.2780 o         1 MOL     -0.638984
    160 O22       -15.2950    0.3340    1.4140 o         1 MOL     -0.638984
    161 H72       -11.2020    0.6490   -2.6720 hn        1 MOL      0.304767
    162 H73       -10.4710   -0.7990   -0.3250 h1        1 MOL      0.087956
    163 H74       -12.8020   -0.7520   -1.1630 hc        1 MOL      0.020427
    164 H75       -12.7900    0.9830   -1.1740 hc        1 MOL      0.020427
    165 H76       -12.9070    1.1170    1.2270 hc        1 MOL      0.065515
    166 H77       -12.2630   -0.5530    1.3680 hc        1 MOL      0.065515
    167 N15       -10.4710    2.5640   -0.3810 n         1 MOL     -0.210801
    168 C54        -9.6640    3.6120    0.1410 c3        1 MOL     -0.232373
    169 H78        -9.7360    4.4840   -0.5080 h1        1 MOL      0.105643
    170 H79       -10.0120    3.8750    1.1410 h1        1 MOL      0.105643
    171 H80        -8.6260    3.2820    0.1920 h1        1 MOL      0.105643
    172 H81       -11.0560    2.6940   -1.2030 hn        1 MOL      0.253033
    173 Ca1         2.9440    0.4030   -1.2390 Ca        1 MOL      1.764025
    174 O23         0.7970    1.9290   -2.0820 oh        1 MOL     -0.845805
    175 H82         0.0130    1.4100   -2.2950 ho        1 MOL      0.415658
    176 H83         0.4550    2.7040   -1.6250 ho        1 MOL      0.415658
    177 O24         3.9340    1.4530   -3.5010 oh        1 MOL     -0.845805
    178 H84         4.6370    2.0970   -3.5410 ho        1 MOL      0.415658
    179 H85         3.7690    1.2110   -4.4110 ho        1 MOL      0.415658
    180 O25         1.0110   -1.9480   -1.4680 oh        1 MOL     -0.845805
    181 H86         0.0580   -2.0130   -1.5960 ho        1 MOL      0.415658
    182 H87         1.3810   -2.0510   -2.3420 ho        1 MOL      0.415658
@<TRIPOS>BOND
     1    1    2 1   
     2    1    4 1   
     3    1    5 1   
     4    1    6 1   
     5    2    3 2   
     6    2    7 1   
     7    7    8 1   
     8    7   15 1   
     9    8    9 1   
    10    8   11 1   
    11    8   16 1   
    12    9   10 2   
    13    9   19 1   
    14   11   12 1   
    15   11   17 1   
    16   11   18 1   
    17   12   13 1   
    18   12   14 1   
    19   19   20 1   
    20   19   28 1   
    21   20   21 1   
    22   20   23 1   
    23   20   29 1   
    24   21   22 2   
    25   21   41 1   
    26   23   24 1   
    27   23   30 1   
    28   23   31 1   
    29   24   25 1   
    30   24   32 1   
    31   24   33 1   
    32   25   26 1   
    33   25   34 1   
    34   25   35 1   
    35   26   27 1   
    36   26   36 1   
    37   26   37 1   
    38   27   38 1   
    39   27   39 1   
    40   27   40 1   
    41   41   42 1   
    42   41   49 1   
    43   42   43 1   
    44   42   45 1   
    45   42   50 1   
    46   43   44 2   
    47   43   53 1   
    48   45   46 1   
    49   45   51 1   
    50   45   52 1   
    51   46   47 1   
    52   46   48 1   
    53   53   54 1   
    54   53   57 1   
    55   54   55 1   
    56   54   58 1   
    57   54   59 1   
    58   55   56 2   
    59   55   60 1   
    60   60   61 1   
    61   60   68 1   
    62   61   62 1   
    63   61   64 1   
    64   61   69 1   
    65   62   63 2   
    66   62   74 1   
    67   64   65 1   
    68   64   70 1   
    69   64   71 1   
    70   65   66 1   
    71   65   67 2   
    72   66   72 1   
    73   66   73 1   
    74   74   75 1   
    75   74   78 1   
    76   75   76 1   
    77   75   79 1   
    78   75   80 1   
    79   76   77 2   
    80   76   81 1   
    81   81   82 1   
    82   81   93 1   
    83   82   83 1   
    84   82   85 1   
    85   82   94 1   
    86   83   84 2   
    87   83  102 1   
    88   85   86 1   
    89   85   95 1   
    90   85   96 1   
    91   86   87 ar  
    92   86   88 ar  
    93   87   89 ar  
    94   87   97 1   
    95   88   90 ar  
    96   88   98 1   
    97   89   91 ar  
    98   89   99 1   
    99   90   91 ar  
   100   90  100 1   
   101   91   92 1   
   102   92  101 1   
   103  102  103 1   
   104  102  110 1   
   105  103  104 1   
   106  103  106 1   
   107  103  111 1   
   108  104  105 2   
   109  104  121 1   
   110  106  107 1   
   111  106  108 1   
   112  106  112 1   
   113  107  109 1   
   114  107  113 1   
   115  107  114 1   
   116  108  115 1   
   117  108  116 1   
   118  108  117 1   
   119  109  118 1   
   120  109  119 1   
   121  109  120 1   
   122  121  122 1   
   123  121  127 1   
   124  122  123 1   
   125  122  125 1   
   126  122  128 1   
   127  123  124 2   
   128  123  132 1   
   129  125  126 1   
   130  125  129 1   
   131  125  130 1   
   132  126  131 1   
   133  132  133 1   
   134  132  137 1   
   135  133  134 1   
   136  133  136 1   
   137  133  138 1   
   138  134  135 2   
   139  134  142 1   
   140  136  139 1   
   141  136  140 1   
   142  136  141 1   
   143  142  143 1   
   144  142  147 1   
   145  143  144 1   
   146  143  146 1   
   147  143  148 1   
   148  144  145 2   
   149  144  152 1   
   150  146  149 1   
   151  146  150 1   
   152  146  151 1   
   153  152  153 1   
   154  152  161 1   
   155  153  154 1   
   156  153  156 1   
   157  153  162 1   
   158  154  155 2   
   159  154  167 1   
   160  156  157 1   
   161  156  163 1   
   162  156  164 1   
   163  157  158 1   
   164  157  165 1   
   165  157  166 1   
   166  158  159 1   
   167  158  160 1   
   168  167  168 1   
   169  167  172 1   
   170  168  169 1   
   171  168  170 1   
   172  168  171 1   
   173  174  175 1   
   174  174  176 1   
   175  177  178 1   
   176  177  179 1   
   177  180  181 1   
   178  180  182 1   
@<TRIPOS>SUBSTRUCTURE
     1 MOL         1 TEMP              0 ****  ****    0 ROOT
