@<TRIPOS>MOLECULE
MOL
  192   187     1     0     0
SMALL
resp


@<TRIPOS>ATOM
      1 C1         -4.6960   -2.8490    2.5140 c3        1 MOL      0.002085
      2 C2         -3.6240   -3.2740    1.5150 c         1 MOL      0.465847
      3 O1         -2.8360   -2.3970    1.1200 o         1 MOL     -0.498410
      4 H1         -4.7620   -1.7610    2.5360 hc        1 MOL      0.002420
      5 H2         -5.6580   -3.2650    2.2140 hc        1 MOL      0.002420
      6 H3         -4.4350   -3.2170    3.5060 hc        1 MOL      0.002420
      7 N1         -3.6540   -4.4570    0.9470 n         1 MOL     -0.500524
      8 C3         -2.8990   -4.8550   -0.2710 c3        1 MOL      0.207629
      9 C4         -1.3340   -4.7520   -0.1640 c         1 MOL      0.661430
     10 O2         -0.6360   -4.5210   -1.1620 o         1 MOL     -0.533796
     11 C5         -3.4900   -4.1930   -1.5730 c3        1 MOL     -0.501759
     12 C6         -4.9640   -3.8330   -1.5850 c         1 MOL      0.872811
     13 O3         -5.8530   -4.6600   -1.8830 o         1 MOL     -0.772630
     14 O4         -5.2710   -2.7590   -1.0700 o         1 MOL     -0.772630
     15 H4         -4.1690   -5.1550    1.4530 hn        1 MOL      0.278255
     16 H5         -2.9810   -5.9420   -0.3020 h1        1 MOL      0.033007
     17 H6         -3.2590   -4.9120   -2.3550 hc        1 MOL      0.141688
     18 H7         -2.9700   -3.2730   -1.8350 hc        1 MOL      0.141688
     19 N2         -0.7710   -4.9330    1.0410 n         1 MOL     -0.644233
     20 C7          0.6450   -4.6920    1.4750 c3        1 MOL     -0.027510
     21 C8          1.6170   -5.7010    0.8840 c         1 MOL      0.575536
     22 O5          1.3110   -6.8990    0.7700 o         1 MOL     -0.594580
     23 C9          0.8230   -4.4120    3.0440 c3        1 MOL      0.341295
     24 C10         0.9310   -5.7600    3.7470 c3        1 MOL      0.051028
     25 C11        -0.2190   -3.4300    3.6160 c3        1 MOL     -0.496172
     26 C12         0.9820   -5.7480    5.2780 c3        1 MOL     -0.281303
     27 H8         -1.3640   -5.2450    1.7960 hn        1 MOL      0.277585
     28 H9          0.8410   -3.7760    0.9210 h1        1 MOL      0.180097
     29 H10         1.8050   -3.9550    3.1490 hc        1 MOL     -0.000918
     30 H11         1.7280   -6.4050    3.3750 hc        1 MOL      0.008935
     31 H12         0.0200   -6.2960    3.4550 hc        1 MOL      0.008935
     32 H13        -1.1940   -3.8650    3.3870 hc        1 MOL      0.111726
     33 H14         0.0210   -3.1160    4.6380 hc        1 MOL      0.111726
     34 H15        -0.0710   -2.5220    3.0320 hc        1 MOL      0.111726
     35 H16         0.9690   -6.7730    5.6250 hc        1 MOL      0.056599
     36 H17         1.9060   -5.2150    5.5350 hc        1 MOL      0.056599
     37 H18         0.1830   -5.1400    5.6970 hc        1 MOL      0.056599
     38 N3          2.8460   -5.3060    0.5490 n         1 MOL     -0.507106
     39 C13         3.3120   -3.9140    0.6510 c3        1 MOL     -0.138392
     40 C14         3.4910   -3.2770   -0.7810 c         1 MOL      0.467088
     41 O6          3.6590   -2.0340   -0.8890 o         1 MOL     -0.417877
     42 C15         4.6510   -3.7480    1.3700 c3        1 MOL     -0.231427
     43 C16         5.8390   -4.6010    0.8400 c         1 MOL      0.736561
     44 O7          6.8190   -4.0090    0.2910 o         1 MOL     -0.708018
     45 O8          5.8260   -5.8280    1.0330 o         1 MOL     -0.708018
     46 H19         3.4540   -6.0870    0.3340 hn        1 MOL      0.329273
     47 H20         2.6060   -3.2630    1.1670 h1        1 MOL      0.061679
     48 H21         4.3960   -4.1090    2.3660 hc        1 MOL      0.085967
     49 H22         4.9660   -2.7210    1.5290 hc        1 MOL      0.085967
     50 N4          3.5790   -4.0600   -1.8780 n         1 MOL     -0.351384
     51 C17         3.7960   -3.6220   -3.2560 c3        1 MOL     -0.228032
     52 C18         5.2560   -3.1030   -3.6140 c         1 MOL      0.587761
     53 O9          5.7910   -3.4180   -4.6860 o         1 MOL     -0.592296
     54 H23         3.8450   -5.0160   -1.6840 hn        1 MOL      0.308558
     55 H24         3.1010   -2.8080   -3.4480 h1        1 MOL      0.134528
     56 H25         3.5160   -4.4890   -3.8610 h1        1 MOL      0.134528
     57 N5          5.7430   -2.2010   -2.7850 n         1 MOL     -0.430114
     58 C19         6.8660   -1.2750   -3.0800 c3        1 MOL      0.154207
     59 C20         7.7410   -0.9190   -1.7960 c         1 MOL      0.264265
     60 O10         8.7500   -0.2610   -2.0010 o         1 MOL     -0.509474
     61 C21         6.3140   -0.0000   -3.7210 c3        1 MOL     -0.161723
     62 C22         4.9350    0.5320   -3.1580 c         1 MOL      0.770034
     63 O11         4.9610    1.2100   -2.1110 o         1 MOL     -0.698082
     64 O12         3.9250    0.3470   -3.8580 o         1 MOL     -0.698082
     65 H26         5.2320   -2.2200   -1.9150 hn        1 MOL      0.188509
     66 H27         7.5410   -1.7420   -3.7940 h1        1 MOL      0.070312
     67 H28         6.1960   -0.2580   -4.7750 hc        1 MOL      0.014861
     68 H29         7.0690    0.8020   -3.7040 hc        1 MOL      0.014861
     69 N6          7.3550   -1.3710   -0.6160 n         1 MOL      0.059357
     70 C23         8.0260   -0.8880    0.5430 c3        1 MOL     -0.230387
     71 C24         7.9360    0.6940    0.8870 c         1 MOL      0.613301
     72 O13         8.4510    1.0710    1.9810 o         1 MOL     -0.611428
     73 H30         6.5200   -1.9230   -0.4920 hn        1 MOL      0.130926
     74 H31         9.0880   -1.1130    0.4000 h1        1 MOL      0.094650
     75 H32         7.6310   -1.4600    1.3730 h1        1 MOL      0.094650
     76 N7          7.4820    1.5390   -0.0250 n         1 MOL     -0.199304
     77 C25         7.4730    3.0380    0.1430 c3        1 MOL      0.095539
     78 C26         6.5840    3.6890    1.2390 c         1 MOL      0.399900
     79 O14         6.8190    4.8500    1.5450 o         1 MOL     -0.502104
     80 C27         8.9020    3.5910   -0.0280 c3        1 MOL     -0.072001
     81 C28         9.7950    2.9690   -1.2000 c3        1 MOL     -0.104590
     82 C29         9.1820    3.2890   -2.5840 c         1 MOL      0.559434
     83 N8          8.9010    2.3050   -3.3320 n         1 MOL     -0.621536
     84 O15         8.9850    4.4650   -2.7820 o         1 MOL     -0.571678
     85 H33         7.2480    1.2370   -0.9610 hn        1 MOL      0.073458
     86 H34         7.0040    3.3600   -0.7900 h1        1 MOL      0.121200
     87 H35         9.2970    3.3160    0.9590 hc        1 MOL      0.033167
     88 H36         8.8250    4.6600   -0.2090 hc        1 MOL      0.033167
     89 H37         9.9030    1.8910   -1.0450 hc        1 MOL      0.015984
     90 H38        10.7920    3.4100   -1.1700 hc        1 MOL      0.015984
     91 H39         9.0090    1.3490   -3.0210 hn        1 MOL      0.301937
     92 H40         8.7040    2.5630   -4.2950 hn        1 MOL      0.301937
     93 N9          5.5940    2.9580    1.8160 n         1 MOL     -0.193782
     94 C30         4.7260    3.3760    2.9250 c3        1 MOL     -0.303834
     95 C31         3.2720    3.1310    2.6230 c         1 MOL      0.921692
     96 O16         2.4410    3.7740    3.2300 o         1 MOL     -0.634521
     97 C32         5.1130    2.7070    4.2680 c3        1 MOL      0.223334
     98 C33         4.8400    1.2360    4.3050 c3        1 MOL     -0.323048
     99 C34         6.6040    3.0050    4.6000 c3        1 MOL     -0.323048
    100 H41         5.4330    2.0510    1.4000 hn        1 MOL      0.132694
    101 H42         4.8850    4.4590    2.9910 h1        1 MOL      0.131317
    102 H43         4.5220    3.1220    5.0840 hc        1 MOL     -0.006941
    103 H44         3.7770    1.0520    4.1710 hc        1 MOL      0.082343
    104 H45         5.4190    0.7480    3.5180 hc        1 MOL      0.082343
    105 H46         5.0740    0.9100    5.3130 hc        1 MOL      0.082343
    106 H47         7.1780    2.3660    3.9250 hc        1 MOL      0.082343
    107 H48         6.9610    4.0160    4.3890 hc        1 MOL      0.082343
    108 H49         6.8670    2.7950    5.6260 hc        1 MOL      0.082343
    109 N10         2.9430    2.2470    1.6650 n         1 MOL     -0.865347
    110 C35         1.5420    1.9280    1.3150 c3        1 MOL      0.254752
    111 C36         0.9740    2.7300    0.1360 c         1 MOL      0.656483
    112 O17         1.7120    3.2750   -0.7250 o         1 MOL     -0.537403
    113 C37         1.3720    0.4060    1.1370 c3        1 MOL     -0.226492
    114 C38         1.8440   -0.3550    2.4240 c         1 MOL      0.575368
    115 N11         1.1390   -0.2530    3.5200 n         1 MOL     -0.699847
    116 O18         2.9240   -0.8680    2.5030 o         1 MOL     -0.516089
    117 H50         3.5580    1.6540    1.1410 hn        1 MOL      0.455694
    118 H51         0.9600    2.2390    2.1780 h1        1 MOL      0.016959
    119 H52         2.0800    0.0840    0.3660 hc        1 MOL      0.092293
    120 H53         0.3460    0.1400    0.9040 hc        1 MOL      0.092293
    121 H54         0.1580   -0.0050    3.4750 hn        1 MOL      0.335477
    122 H55         1.5630   -0.6400    4.3580 hn        1 MOL      0.335477
    123 N12        -0.2980    2.9220    0.1130 n         1 MOL     -0.487105
    124 C39        -1.0480    3.7660   -0.8610 c3        1 MOL     -0.035031
    125 C40        -2.4730    4.0040   -0.3230 c         1 MOL      0.724172
    126 O19        -2.8800    3.4750    0.7010 o         1 MOL     -0.560560
    127 C41        -1.0950    3.1240   -2.2310 c3        1 MOL     -0.179638
    128 C42        -2.1990    2.0330   -2.4110 ca        1 MOL      0.051088
    129 C43        -2.0790    0.8030   -1.7570 ca        1 MOL     -0.162601
    130 C44        -3.3550    2.4320   -3.0890 ca        1 MOL     -0.162601
    131 C45        -3.1950   -0.0780   -1.7570 ca        1 MOL     -0.204492
    132 C46        -4.4080    1.4980   -3.1360 ca        1 MOL     -0.204492
    133 C47        -4.3290    0.2760   -2.4580 ca        1 MOL      0.256856
    134 O20        -5.4220   -0.5940   -2.5190 oh        1 MOL     -0.548681
    135 H56        -0.9080    2.5570    0.8380 hn        1 MOL      0.227557
    136 H57        -0.5150    4.7050   -1.0100 h1        1 MOL      0.113167
    137 H58        -0.1170    2.6550   -2.2820 hc        1 MOL      0.087871
    138 H59        -1.2810    3.9510   -2.9220 hc        1 MOL      0.087871
    139 H60        -1.2330    0.6180   -1.1180 ha        1 MOL      0.148888
    140 H61        -3.4990    3.3360   -3.6450 ha        1 MOL      0.148888
    141 H62        -3.0310   -1.0010   -1.2090 ha        1 MOL      0.135080
    142 H63        -5.2640    1.6700   -3.7720 ha        1 MOL      0.135080
    143 H64        -5.2810   -1.3300   -1.9170 ho        1 MOL      0.425263
    144 N13        -3.2280    4.9620   -0.8950 n         1 MOL     -0.724333
    145 C48        -4.6010    5.1110   -0.5480 c3        1 MOL      0.503291
    146 C49        -5.4390    4.3180   -1.5650 c         1 MOL      0.342540
    147 O21        -5.4020    4.6290   -2.7590 o         1 MOL     -0.553402
    148 C50        -5.0670    6.5090   -0.6070 c3        1 MOL     -0.151385
    149 C51        -4.4370    7.4090    0.5120 c3        1 MOL     -0.160423
    150 C52        -4.8680    8.8460    0.1920 c         1 MOL      0.656071
    151 O22        -5.9780    9.3220    0.6250 o         1 MOL     -0.680066
    152 O23        -4.2070    9.5490   -0.5880 o         1 MOL     -0.680066
    153 H65        -2.8480    5.5230   -1.6410 hn        1 MOL      0.352542
    154 H66        -4.6760    4.6840    0.4570 h1        1 MOL     -0.089232
    155 H67        -6.1310    6.5400   -0.3990 hc        1 MOL      0.076637
    156 H68        -4.8530    6.9500   -1.5860 hc        1 MOL      0.076637
    157 H69        -3.3410    7.3930    0.4490 hc        1 MOL      0.018175
    158 H70        -4.7930    7.1280    1.5010 hc        1 MOL      0.018175
    159 N14        -6.1790    3.3070   -1.1250 n         1 MOL     -0.447353
    160 C53        -6.1750    2.7630    0.2530 c3        1 MOL      0.190761
    161 C54        -6.9350    3.7060    1.1730 c         1 MOL      0.462541
    162 O24        -7.6160    4.6310    0.7120 o         1 MOL     -0.526466
    163 C55        -6.8450    1.3810    0.0540 c3        1 MOL     -0.080527
    164 C56        -7.3290    0.7670    1.3810 c3        1 MOL     -0.104197
    165 C57        -8.0420   -0.5810    1.2210 c         1 MOL      0.774725
    166 O25        -8.2460   -1.2910    2.2370 o         1 MOL     -0.775195
    167 O26        -8.3550   -1.0400    0.1050 o         1 MOL     -0.775195
    168 H71        -6.5940    2.7240   -1.8470 hn        1 MOL      0.306414
    169 H72        -5.1750    2.5720    0.6600 h1        1 MOL      0.066187
    170 H73        -6.2230    0.6150   -0.4020 hc        1 MOL      0.011837
    171 H74        -7.7090    1.4410   -0.6080 hc        1 MOL      0.011837
    172 H75        -7.9170    1.4890    1.9410 hc        1 MOL      0.018606
    173 H76        -6.4630    0.5950    2.0170 hc        1 MOL      0.018606
    174 N15        -6.5200    3.7680    2.4670 n         1 MOL     -0.170222
    175 C58        -7.1720    4.4860    3.6240 c3        1 MOL     -0.291349
    176 H77        -7.1900    5.5570    3.4210 h1        1 MOL      0.114348
    177 H78        -8.1920    4.1240    3.7490 h1        1 MOL      0.114348
    178 H79        -6.6050    4.2990    4.5360 h1        1 MOL      0.114348
    179 H80        -5.6880    3.2530    2.7020 hn        1 MOL      0.195475
    180 Ca1        -7.9120   -3.3320   -0.9600 Ca        1 MOL      1.787265
    181 O27        -7.5990   -2.2550   -3.3760 oh        1 MOL     -0.889908
    182 O28        -9.7080   -3.2930    1.1560 oh        1 MOL     -0.889908
    183 H81        -6.7450   -2.1430   -3.7810 ho        1 MOL      0.407180
    184 H82       -10.0840   -3.8430    1.8400 ho        1 MOL      0.407180
    185 H83        -8.1850   -1.6770   -3.8820 ho        1 MOL      0.407180
    186 H84        -9.3190   -2.5560    1.6300 ho        1 MOL      0.407180
    187 O29        -8.1930   -5.8970   -0.6590 oh        1 MOL     -0.889908
    188 H85        -8.6250   -6.4920   -1.2740 ho        1 MOL      0.407180
    189 H86        -8.0040   -6.4360    0.1080 ho        1 MOL      0.407180
    190 O30       -10.1790   -3.9320   -2.0530 oh        1 MOL     -0.889908
    191 H87       -10.7470   -3.4720   -2.6780 ho        1 MOL      0.407180
    192 H88       -10.7480   -4.5970   -1.6560 ho        1 MOL      0.407180
@<TRIPOS>BOND
     1    1    2 1   
     2    1    4 1   
     3    1    5 1   
     4    1    6 1   
     5    2    3 2   
     6    2    7 1   
     7    7    8 1   
     8    7   15 1   
     9    8    9 1   
    10    8   11 1   
    11    8   16 1   
    12    9   10 2   
    13    9   19 1   
    14   11   12 1   
    15   11   17 1   
    16   11   18 1   
    17   12   13 1   
    18   12   14 1   
    19   19   20 1   
    20   19   27 1   
    21   20   21 1   
    22   20   23 1   
    23   20   28 1   
    24   21   22 2   
    25   21   38 1   
    26   23   24 1   
    27   23   25 1   
    28   23   29 1   
    29   24   26 1   
    30   24   30 1   
    31   24   31 1   
    32   25   32 1   
    33   25   33 1   
    34   25   34 1   
    35   26   35 1   
    36   26   36 1   
    37   26   37 1   
    38   38   39 1   
    39   38   46 1   
    40   39   40 1   
    41   39   42 1   
    42   39   47 1   
    43   40   41 2   
    44   40   50 1   
    45   42   43 1   
    46   42   48 1   
    47   42   49 1   
    48   43   44 1   
    49   43   45 1   
    50   50   51 1   
    51   50   54 1   
    52   51   52 1   
    53   51   55 1   
    54   51   56 1   
    55   52   53 2   
    56   52   57 1   
    57   57   58 1   
    58   57   65 1   
    59   58   59 1   
    60   58   61 1   
    61   58   66 1   
    62   59   60 2   
    63   59   69 1   
    64   61   62 1   
    65   61   67 1   
    66   61   68 1   
    67   62   63 1   
    68   62   64 1   
    69   69   70 1   
    70   69   73 1   
    71   70   71 1   
    72   70   74 1   
    73   70   75 1   
    74   71   72 2   
    75   71   76 1   
    76   76   77 1   
    77   76   85 1   
    78   77   78 1   
    79   77   80 1   
    80   77   86 1   
    81   78   79 2   
    82   78   93 1   
    83   80   81 1   
    84   80   87 1   
    85   80   88 1   
    86   81   82 1   
    87   81   89 1   
    88   81   90 1   
    89   82   83 1   
    90   82   84 2   
    91   83   91 1   
    92   83   92 1   
    93   93   94 1   
    94   93  100 1   
    95   94   95 1   
    96   94   97 1   
    97   94  101 1   
    98   95   96 2   
    99   95  109 1   
   100   97   98 1   
   101   97   99 1   
   102   97  102 1   
   103   98  103 1   
   104   98  104 1   
   105   98  105 1   
   106   99  106 1   
   107   99  107 1   
   108   99  108 1   
   109  109  110 1   
   110  109  117 1   
   111  110  111 1   
   112  110  113 1   
   113  110  118 1   
   114  111  112 2   
   115  111  123 1   
   116  113  114 1   
   117  113  119 1   
   118  113  120 1   
   119  114  115 1   
   120  114  116 2   
   121  115  121 1   
   122  115  122 1   
   123  123  124 1   
   124  123  135 1   
   125  124  125 1   
   126  124  127 1   
   127  124  136 1   
   128  125  126 2   
   129  125  144 1   
   130  127  128 1   
   131  127  137 1   
   132  127  138 1   
   133  128  129 ar  
   134  128  130 ar  
   135  129  131 ar  
   136  129  139 1   
   137  130  132 ar  
   138  130  140 1   
   139  131  133 ar  
   140  131  141 1   
   141  132  133 ar  
   142  132  142 1   
   143  133  134 1   
   144  134  143 1   
   145  144  145 1   
   146  144  153 1   
   147  145  146 1   
   148  145  148 1   
   149  145  154 1   
   150  146  147 2   
   151  146  159 1   
   152  148  149 1   
   153  148  155 1   
   154  148  156 1   
   155  149  150 1   
   156  149  157 1   
   157  149  158 1   
   158  150  151 1   
   159  150  152 1   
   160  159  160 1   
   161  159  168 1   
   162  160  161 1   
   163  160  163 1   
   164  160  169 1   
   165  161  162 2   
   166  161  174 1   
   167  163  164 1   
   168  163  170 1   
   169  163  171 1   
   170  164  165 1   
   171  164  172 1   
   172  164  173 1   
   173  165  166 1   
   174  165  167 1   
   175  174  175 1   
   176  174  179 1   
   177  175  176 1   
   178  175  177 1   
   179  175  178 1   
   180  181  183 1   
   181  181  185 1   
   182  182  184 1   
   183  182  186 1   
   184  187  188 1   
   185  187  189 1   
   186  190  191 1   
   187  190  192 1   
@<TRIPOS>SUBSTRUCTURE
     1 MOL         1 TEMP              0 ****  ****    0 ROOT
