@<TRIPOS>MOLECULE
MOL
  189   185     1     0     0
SMALL
resp


@<TRIPOS>ATOM
      1 C1          9.2060    1.4310    0.6950 c3        1 MOL     -0.445582
      2 C2          8.1080    0.4980    0.1130 c         1 MOL      0.754304
      3 O1          7.1800    0.0940    0.8340 o         1 MOL     -0.646969
      4 H1          8.8340    1.9080    1.6020 hc        1 MOL      0.116883
      5 H2         10.0930    0.8450    0.9330 hc        1 MOL      0.116883
      6 H3          9.4610    2.1960   -0.0390 hc        1 MOL      0.116883
      7 N1          8.1950    0.1500   -1.1510 n         1 MOL     -0.646248
      8 C3          7.1740   -0.4930   -1.9950 c3        1 MOL      0.163497
      9 C4          6.7540   -1.9300   -1.6140 c         1 MOL      0.363658
     10 O2          6.3140   -2.7480   -2.4830 o         1 MOL     -0.492640
     11 C5          7.4640   -0.2840   -3.5080 c3        1 MOL     -0.127707
     12 C6          8.0380    1.1030   -3.7840 c         1 MOL      0.743780
     13 O3          9.0330    1.1420   -4.4780 o         1 MOL     -0.670291
     14 O4          7.4340    2.1200   -3.3690 o         1 MOL     -0.670291
     15 H4          9.1300    0.2640   -1.5010 hn        1 MOL      0.328004
     16 H5          6.3050    0.1420   -1.8430 h1        1 MOL      0.100204
     17 H6          6.5640   -0.4320   -4.1150 hc        1 MOL      0.033923
     18 H7          8.1580   -1.0250   -3.8800 hc        1 MOL      0.033923
     19 N2          6.7960   -2.3500   -0.3820 n         1 MOL     -0.119744
     20 C7          6.4160   -3.6020    0.0410 c3        1 MOL     -0.054922
     21 C8          4.8780   -3.8970   -0.0930 c         1 MOL      0.501272
     22 O5          4.4820   -4.9320   -0.5580 o         1 MOL     -0.519912
     23 C9          6.8120   -3.7120    1.5390 c3        1 MOL     -0.101338
     24 C10         8.2780   -3.3890    1.9210 c3        1 MOL     -0.015942
     25 C11         8.4270   -3.3830    3.4540 c3        1 MOL      0.067433
     26 C12         9.9460   -3.2430    3.9060 c3        1 MOL      0.021857
     27 N3         10.1690   -3.6040    5.2700 n4        1 MOL     -0.148595
     28 H8          7.2240   -1.7130    0.2730 hn        1 MOL      0.140205
     29 H9          6.8300   -4.3330   -0.6470 h1        1 MOL      0.081183
     30 H10         6.5510   -4.6930    1.9390 hc        1 MOL      0.052441
     31 H11         6.1740   -3.0660    2.1230 hc        1 MOL      0.052441
     32 H12         8.5910   -2.4110    1.5520 hc        1 MOL      0.012069
     33 H13         8.9430   -4.1140    1.4600 hc        1 MOL      0.012069
     34 H14         7.9510   -4.2430    3.9160 hc        1 MOL      0.008255
     35 H15         7.8790   -2.5280    3.8300 hc        1 MOL      0.008255
     36 H16        10.3830   -2.2440    3.7840 hx        1 MOL      0.061239
     37 H17        10.5090   -3.9040    3.2460 hx        1 MOL      0.061239
     38 H18         9.5990   -3.0590    5.9070 hn        1 MOL      0.221497
     39 H19        10.0780   -4.5720    5.5480 hn        1 MOL      0.221497
     40 H20        11.1320   -3.4330    5.5460 hn        1 MOL      0.221497
     41 N4          3.9390   -2.9170    0.1170 n         1 MOL     -0.306089
     42 C13         4.0150   -1.6450    0.9070 c3        1 MOL     -0.144394
     43 C14         3.8290   -0.3950    0.0730 c         1 MOL      0.189123
     44 O6          3.3460   -0.5130   -1.0420 o         1 MOL     -0.379882
     45 C15         2.9740   -1.6920    2.0470 c3        1 MOL     -0.213856
     46 C16         1.5750   -2.0550    1.4830 c         1 MOL      0.727543
     47 O7          1.0370   -1.2200    0.7500 o         1 MOL     -0.698000
     48 O8          1.0990   -3.2330    1.6900 o         1 MOL     -0.698000
     49 H21         3.0280   -3.2200   -0.1680 hn        1 MOL      0.335286
     50 H22         4.9560   -1.4470    1.4130 h1        1 MOL      0.183718
     51 H23         2.8170   -0.7020    2.4870 hc        1 MOL      0.033909
     52 H24         3.2750   -2.3750    2.8390 hc        1 MOL      0.033909
     53 N5          4.2440    0.7970    0.5790 n         1 MOL     -0.202779
     54 C17         4.1840    2.0480   -0.1920 c3        1 MOL      0.028906
     55 C18         2.8210    2.5100   -0.7360 c         1 MOL      0.535251
     56 O9          1.8290    1.9180   -0.4890 o         1 MOL     -0.651902
     57 H25         4.7600    0.8090    1.4450 hn        1 MOL      0.239677
     58 H26         4.9170    1.9870   -1.0010 h1        1 MOL      0.042376
     59 H27         4.4990    2.7880    0.5420 h1        1 MOL      0.042376
     60 N6          2.9310    3.3740   -1.7490 n         1 MOL     -0.372511
     61 C19         1.9240    3.9100   -2.5770 c3        1 MOL      0.403366
     62 C20         2.1760    5.3760   -2.8960 c         1 MOL      0.292331
     63 O10         3.3120    5.7980   -3.0290 o         1 MOL     -0.509046
     64 C21         1.6490    3.0550   -3.8350 c3        1 MOL     -0.274359
     65 C22         0.8470    1.8640   -3.6280 c         1 MOL      0.734551
     66 O11         1.0140    0.8850   -4.4030 o         1 MOL     -0.702371
     67 O12        -0.0990    1.8590   -2.8200 o         1 MOL     -0.702371
     68 H28         3.8310    3.7980   -1.9130 hn        1 MOL      0.223729
     69 H29         1.0110    3.9410   -1.9810 h1        1 MOL     -0.002775
     70 H30         2.6100    2.6250   -4.1220 hc        1 MOL      0.080291
     71 H31         1.1900    3.7230   -4.5620 hc        1 MOL      0.080291
     72 N7          1.2070    6.2520   -2.9950 n         1 MOL     -0.308695
     73 C23        -0.2610    5.9670   -2.9100 c3        1 MOL     -0.265648
     74 C24        -0.7500    5.6490   -1.5060 c         1 MOL      0.663663
     75 O13        -0.2070    5.9730   -0.4510 o         1 MOL     -0.518350
     76 H32         1.4980    7.1820   -3.2790 hn        1 MOL      0.299208
     77 H33        -0.5700    5.1580   -3.5730 h1        1 MOL      0.132377
     78 H34        -0.6950    6.9270   -3.2030 h1        1 MOL      0.132377
     79 N8         -1.9510    5.0260   -1.4840 n         1 MOL     -0.712075
     80 C25        -2.6250    4.8360   -0.1980 c3        1 MOL      0.212290
     81 C26        -1.8610    3.7780    0.6110 c         1 MOL      0.553973
     82 O14        -1.1780    2.9050    0.0190 o         1 MOL     -0.546405
     83 C27        -4.1340    4.4990   -0.3710 c3        1 MOL      0.124038
     84 C28        -5.0080    4.7010    0.8140 c3        1 MOL     -0.367719
     85 O15        -4.3880    3.2440   -0.7400 oh        1 MOL     -0.513217
     86 H35        -2.2720    4.5340   -2.3040 hn        1 MOL      0.365209
     87 H36        -2.5260    5.7590    0.3640 h1        1 MOL      0.061569
     88 H37        -4.4930    5.1170   -1.2000 h1        1 MOL      0.052330
     89 H38        -5.1960    3.2990   -1.2490 ho        1 MOL      0.412272
     90 H39        -4.9230    5.6560    1.3280 hc        1 MOL      0.100227
     91 H40        -6.0600    4.4370    0.6560 hc        1 MOL      0.100227
     92 H41        -4.6750    4.0380    1.6050 hc        1 MOL      0.100227
     93 N9         -1.8350    3.8410    1.9940 n         1 MOL     -0.410959
     94 C29        -1.0110    2.9660    2.9010 c3        1 MOL     -0.194752
     95 C30        -1.5000    1.5000    2.8300 c         1 MOL      0.856654
     96 O16        -1.0980    0.7660    1.9630 o         1 MOL     -0.657754
     97 C31         0.4930    3.1920    2.6340 c3        1 MOL      0.056930
     98 C32         0.9610    4.6090    3.1740 c3        1 MOL      0.085216
     99 C33         1.3710    2.1150    3.3530 c3        1 MOL     -0.449367
    100 C34         2.3420    4.9000    2.6500 c3        1 MOL      0.005201
    101 H42        -2.4160    4.5250    2.4630 hn        1 MOL      0.266821
    102 H43        -1.1490    3.2100    3.9580 h1        1 MOL      0.079842
    103 H44         0.7540    3.1150    1.5790 hc        1 MOL      0.143891
    104 H45         0.9690    4.6320    4.2650 hc        1 MOL     -0.026325
    105 H46         0.2380    5.3030    2.7400 hc        1 MOL     -0.026325
    106 H47         1.0520    2.1630    4.3930 hc        1 MOL      0.111319
    107 H48         1.1590    1.1080    2.9910 hc        1 MOL      0.111319
    108 H49         2.4490    2.2550    3.4080 hc        1 MOL      0.111319
    109 H50         3.1080    4.2530    3.0800 hc        1 MOL     -0.004956
    110 H51         2.4470    4.9230    1.5690 hc        1 MOL     -0.004956
    111 H52         2.5620    5.8930    3.0440 hc        1 MOL     -0.004956
    112 N10        -2.2700    1.0410    3.8520 n         1 MOL     -0.639966
    113 C35        -2.6430   -0.3470    3.9110 c3        1 MOL      0.074627
    114 C36        -4.0190   -0.6040    3.3080 c         1 MOL      0.506239
    115 O17        -4.4410   -1.7370    3.0450 o         1 MOL     -0.597604
    116 C37        -2.6460   -0.8870    5.3360 c3        1 MOL      0.422386
    117 C38        -3.6530   -0.1680    6.2500 c3        1 MOL     -0.232945
    118 O18        -1.3510   -0.8210    5.8900 oh        1 MOL     -0.636709
    119 H53        -2.3700    1.5900    4.6890 hn        1 MOL      0.328263
    120 H54        -2.0070   -1.0210    3.3340 h1        1 MOL      0.057881
    121 H55        -2.8420   -1.9580    5.1760 h1        1 MOL     -0.032959
    122 H56        -0.8440   -1.2320    5.1860 ho        1 MOL      0.403271
    123 H57        -3.5630   -0.4490    7.3010 hc        1 MOL      0.056132
    124 H58        -3.5980    0.9100    6.1240 hc        1 MOL      0.056132
    125 H59        -4.6640   -0.4750    5.9720 hc        1 MOL      0.056132
    126 N11        -4.7490    0.4290    3.0400 n         1 MOL     -0.095794
    127 C39        -6.1740    0.2930    2.4920 c3        1 MOL     -0.549214
    128 C40        -6.0850   -0.2320    1.0350 c         1 MOL      0.780258
    129 O19        -5.6370    0.4530    0.1090 o         1 MOL     -0.553703
    130 C41        -6.8640    1.6660    2.4100 c3        1 MOL      0.602853
    131 C42        -8.3500    1.4630    2.1670 c3        1 MOL     -0.426701
    132 O20        -6.7890    2.3760    3.5630 oh        1 MOL     -0.660586
    133 H60        -4.3730    1.3540    3.1460 hn        1 MOL      0.116961
    134 H61        -6.7800   -0.3380    3.1410 h1        1 MOL      0.166229
    135 H62        -6.3700    2.2030    1.5980 h1        1 MOL     -0.029252
    136 H63        -7.1880    1.9140    4.2970 ho        1 MOL      0.414313
    137 H64        -8.8070    2.4570    2.1570 hc        1 MOL      0.099641
    138 H65        -8.5370    0.9830    1.2080 hc        1 MOL      0.099641
    139 H66        -8.7580    0.8070    2.9410 hc        1 MOL      0.099641
    140 N12        -6.6300   -1.4570    0.8910 n         1 MOL     -0.486595
    141 C43        -6.5920   -2.2040   -0.4250 c3        1 MOL      0.111465
    142 C44        -5.2530   -2.1380   -1.1150 c         1 MOL      0.579609
    143 O21        -4.9630   -1.2240   -1.8900 o         1 MOL     -0.541196
    144 C45        -7.7290   -1.6730   -1.3320 c3        1 MOL     -0.543960
    145 C46        -9.1540   -1.8010   -0.9000 c3        1 MOL      0.477208
    146 C47       -10.1990   -1.4560   -1.9820 c3        1 MOL     -0.395722
    147 C48       -10.6930   -2.6810   -2.7120 c3        1 MOL      0.153595
    148 N13       -11.6630   -2.2700   -3.7730 n4        1 MOL     -0.193172
    149 H67        -6.9340   -1.9960    1.6900 hn        1 MOL      0.295858
    150 H68        -6.7630   -3.2620   -0.2590 h1        1 MOL      0.043729
    151 H69        -7.4580   -2.2610   -2.2110 hc        1 MOL      0.163485
    152 H70        -7.4870   -0.6230   -1.5130 hc        1 MOL      0.163485
    153 H71        -9.2340   -1.1170   -0.0460 hc        1 MOL     -0.072285
    154 H72        -9.2960   -2.7700   -0.4210 hc        1 MOL     -0.072285
    155 H73        -9.6200   -0.9610   -2.7610 hc        1 MOL      0.105823
    156 H74       -10.9950   -0.8860   -1.5070 hc        1 MOL      0.105823
    157 H75       -11.1220   -3.3290   -1.9410 hx        1 MOL      0.049198
    158 H76        -9.8120   -3.2300   -3.0290 hx        1 MOL      0.049198
    159 H77       -12.5240   -2.0030   -3.2980 hn        1 MOL      0.226421
    160 H78       -11.3230   -1.4390   -4.2450 hn        1 MOL      0.226421
    161 H79       -11.9040   -2.9720   -4.4560 hn        1 MOL      0.226421
    162 N14        -4.4890   -3.1750   -0.8240 n         1 MOL     -0.608838
    163 C49        -3.1530   -3.4610   -1.3200 c3        1 MOL      0.470116
    164 C50        -2.0410   -3.0370   -0.3620 c         1 MOL      0.362982
    165 O22        -1.5710   -1.8970   -0.4720 o         1 MOL     -0.547935
    166 C51        -3.0650   -4.9730   -1.8080 c3        1 MOL     -0.137139
    167 C52        -3.8060   -5.1060   -3.1340 c3        1 MOL     -0.158097
    168 C53        -3.3100   -6.4410   -3.8590 c         1 MOL      0.683131
    169 O23        -2.2350   -6.3680   -4.4880 o         1 MOL     -0.637085
    170 O24        -4.0280   -7.4770   -3.7350 o         1 MOL     -0.637085
    171 H80        -4.9410   -3.8330   -0.2040 hn        1 MOL      0.315605
    172 H81        -2.8780   -2.7710   -2.1140 h1        1 MOL      0.022604
    173 H82        -3.4960   -5.6690   -1.0800 hc        1 MOL      0.059317
    174 H83        -1.9930   -5.1920   -1.9110 hc        1 MOL      0.059317
    175 H84        -3.5770   -4.3050   -3.8290 hc        1 MOL      0.000129
    176 H85        -4.8900   -5.1420   -3.0540 hc        1 MOL      0.000129
    177 N15        -1.5470   -3.7700    0.6480 n         1 MOL     -0.318694
    178 C54        -1.8660   -5.0690    1.1910 c3        1 MOL     -0.091573
    179 H86        -1.1150   -5.7910    0.8710 h1        1 MOL      0.052548
    180 H87        -1.8780   -5.0150    2.2800 h1        1 MOL      0.052548
    181 H88        -2.8470   -5.3820    0.8320 h1        1 MOL      0.052548
    182 H89        -0.8390   -3.3450    1.2240 hn        1 MOL      0.330710
    183 Ca1        -0.2210    0.3450   -0.7120 Ca        1 MOL      1.848579
    184 O25        -2.7800    0.6700   -0.8750 oh        1 MOL     -1.013119
    185 H90        -3.3850    0.0380   -1.2640 ho        1 MOL      0.466045
    186 H91        -3.3500    1.3120   -0.4520 ho        1 MOL      0.466045
    187 O26        -0.2350   -1.1950   -3.0740 oh        1 MOL     -1.013119
    188 H92        -0.2050   -2.0200   -3.5630 ho        1 MOL      0.466045
    189 H93         0.0290   -0.5280   -3.7130 ho        1 MOL      0.466045
@<TRIPOS>BOND
     1    1    2 1   
     2    1    4 1   
     3    1    5 1   
     4    1    6 1   
     5    2    3 2   
     6    2    7 1   
     7    7    8 1   
     8    7   15 1   
     9    8    9 1   
    10    8   11 1   
    11    8   16 1   
    12    9   10 2   
    13    9   19 1   
    14   11   12 1   
    15   11   17 1   
    16   11   18 1   
    17   12   13 1   
    18   12   14 1   
    19   19   20 1   
    20   19   28 1   
    21   20   21 1   
    22   20   23 1   
    23   20   29 1   
    24   21   22 2   
    25   21   41 1   
    26   23   24 1   
    27   23   30 1   
    28   23   31 1   
    29   24   25 1   
    30   24   32 1   
    31   24   33 1   
    32   25   26 1   
    33   25   34 1   
    34   25   35 1   
    35   26   27 1   
    36   26   36 1   
    37   26   37 1   
    38   27   38 1   
    39   27   39 1   
    40   27   40 1   
    41   41   42 1   
    42   41   49 1   
    43   42   43 1   
    44   42   45 1   
    45   42   50 1   
    46   43   44 2   
    47   43   53 1   
    48   45   46 1   
    49   45   51 1   
    50   45   52 1   
    51   46   47 1   
    52   46   48 1   
    53   53   54 1   
    54   53   57 1   
    55   54   55 1   
    56   54   58 1   
    57   54   59 1   
    58   55   56 2   
    59   55   60 1   
    60   60   61 1   
    61   60   68 1   
    62   61   62 1   
    63   61   64 1   
    64   61   69 1   
    65   62   63 2   
    66   62   72 1   
    67   64   65 1   
    68   64   70 1   
    69   64   71 1   
    70   65   66 1   
    71   65   67 1   
    72   72   73 1   
    73   72   76 1   
    74   73   74 1   
    75   73   77 1   
    76   73   78 1   
    77   74   75 2   
    78   74   79 1   
    79   79   80 1   
    80   79   86 1   
    81   80   81 1   
    82   80   83 1   
    83   80   87 1   
    84   81   82 2   
    85   81   93 1   
    86   83   84 1   
    87   83   85 1   
    88   83   88 1   
    89   84   90 1   
    90   84   91 1   
    91   84   92 1   
    92   85   89 1   
    93   93   94 1   
    94   93  101 1   
    95   94   95 1   
    96   94   97 1   
    97   94  102 1   
    98   95   96 2   
    99   95  112 1   
   100   97   98 1   
   101   97   99 1   
   102   97  103 1   
   103   98  100 1   
   104   98  104 1   
   105   98  105 1   
   106   99  106 1   
   107   99  107 1   
   108   99  108 1   
   109  100  109 1   
   110  100  110 1   
   111  100  111 1   
   112  112  113 1   
   113  112  119 1   
   114  113  114 1   
   115  113  116 1   
   116  113  120 1   
   117  114  115 2   
   118  114  126 1   
   119  116  117 1   
   120  116  118 1   
   121  116  121 1   
   122  117  123 1   
   123  117  124 1   
   124  117  125 1   
   125  118  122 1   
   126  126  127 1   
   127  126  133 1   
   128  127  128 1   
   129  127  130 1   
   130  127  134 1   
   131  128  129 2   
   132  128  140 1   
   133  130  131 1   
   134  130  132 1   
   135  130  135 1   
   136  131  137 1   
   137  131  138 1   
   138  131  139 1   
   139  132  136 1   
   140  140  141 1   
   141  140  149 1   
   142  141  142 1   
   143  141  144 1   
   144  141  150 1   
   145  142  143 2   
   146  142  162 1   
   147  144  145 1   
   148  144  151 1   
   149  144  152 1   
   150  145  146 1   
   151  145  153 1   
   152  145  154 1   
   153  146  147 1   
   154  146  155 1   
   155  146  156 1   
   156  147  148 1   
   157  147  157 1   
   158  147  158 1   
   159  148  159 1   
   160  148  160 1   
   161  148  161 1   
   162  162  163 1   
   163  162  171 1   
   164  163  164 1   
   165  163  166 1   
   166  163  172 1   
   167  164  165 2   
   168  164  177 1   
   169  166  167 1   
   170  166  173 1   
   171  166  174 1   
   172  167  168 1   
   173  167  175 1   
   174  167  176 1   
   175  168  169 1   
   176  168  170 1   
   177  177  178 1   
   178  177  182 1   
   179  178  179 1   
   180  178  180 1   
   181  178  181 1   
   182  184  185 1   
   183  184  186 1   
   184  187  188 1   
   185  187  189 1   
@<TRIPOS>SUBSTRUCTURE
     1 MOL         1 TEMP              0 ****  ****    0 ROOT
