@<TRIPOS>MOLECULE
MOL
  175   173     1     0     0
SMALL
resp


@<TRIPOS>ATOM
      1 C1         -5.7660    8.2820    1.5610 c3        1 MOL     -0.401910
      2 C2         -6.8110    7.6040    0.7130 c         1 MOL      0.652636
      3 O1         -7.0870    7.9720   -0.4480 o         1 MOL     -0.571504
      4 H1         -5.9320    8.0320    2.6100 hc        1 MOL      0.095032
      5 H2         -4.7760    7.9410    1.2600 hc        1 MOL      0.095032
      6 H3         -5.8360    9.3610    1.4290 hc        1 MOL      0.095032
      7 N1         -7.5380    6.6870    1.3500 n         1 MOL     -0.504234
      8 C3         -8.3970    5.7920    0.5220 c3        1 MOL      0.186008
      9 C4         -7.6950    4.8040   -0.3970 c         1 MOL      0.557879
     10 O2         -8.1750    4.4650   -1.4540 o         1 MOL     -0.488170
     11 C5         -9.2820    4.9320    1.5060 c3        1 MOL     -0.373557
     12 C6        -10.2710    4.1120    0.7480 c         1 MOL      0.732824
     13 O3        -10.4270    2.8970    0.7830 o         1 MOL     -0.722783
     14 O4        -10.9120    4.6700   -0.1650 o         1 MOL     -0.722783
     15 H4         -7.1480    6.3080    2.2080 hn        1 MOL      0.293950
     16 H5         -8.9920    6.4690   -0.0850 h1        1 MOL      0.058553
     17 H6         -9.7340    5.5770    2.2650 hc        1 MOL      0.048154
     18 H7         -8.6340    4.2660    2.0730 hc        1 MOL      0.048154
     19 N2         -6.4890    4.2790    0.0030 n         1 MOL     -0.485667
     20 C7         -5.7400    3.2250   -0.6910 c3        1 MOL      0.203459
     21 C8         -4.9890    2.3500    0.3630 c         1 MOL      0.526472
     22 O5         -4.4980    2.8380    1.3560 o         1 MOL     -0.551325
     23 C9         -4.8130    3.8770   -1.7980 c3        1 MOL     -0.353274
     24 H8         -6.1380    4.5370    0.9110 hn        1 MOL      0.229556
     25 H9         -6.3750    2.5610   -1.2840 h1        1 MOL      0.056652
     26 H10        -5.4070    4.2680   -2.6280 hc        1 MOL      0.097654
     27 H11        -4.4460    4.8480   -1.4650 hc        1 MOL      0.097654
     28 H12        -4.0000    3.2150   -2.1060 hc        1 MOL      0.097654
     29 N3         -4.8170    1.0520    0.1970 n         1 MOL     -0.327320
     30 C10        -5.4700    0.1740   -0.7750 c3        1 MOL     -0.246272
     31 C11        -5.6100   -1.3300   -0.2300 c         1 MOL      0.650132
     32 O6         -5.0810   -1.7380    0.7940 o         1 MOL     -0.572068
     33 C12        -4.7290    0.2460   -2.1380 c3        1 MOL     -0.056458
     34 C13        -3.3280   -0.1560   -1.9080 c         1 MOL      0.652046
     35 O7         -3.0690   -1.3420   -1.9090 o         1 MOL     -0.718065
     36 O8         -2.4290    0.5820   -1.4760 o         1 MOL     -0.718065
     37 H13        -4.2340    0.5910    0.8720 hn        1 MOL      0.256900
     38 H14        -6.5340    0.3900   -0.8970 h1        1 MOL      0.125672
     39 H15        -4.8010    1.1540   -2.7440 hc        1 MOL      0.032497
     40 H16        -5.2120   -0.4480   -2.8170 hc        1 MOL      0.032497
     41 N4         -6.5010   -2.0740   -0.8410 n         1 MOL     -0.390954
     42 C14        -7.0030   -3.3160   -0.3440 c3        1 MOL      0.008828
     43 C15        -6.8950   -4.4230   -1.4160 c         1 MOL      0.573855
     44 O9         -7.8280   -4.7440   -2.1100 o         1 MOL     -0.570979
     45 H17        -7.0120   -1.6940   -1.6280 hn        1 MOL      0.309260
     46 H18        -8.0500   -3.2700   -0.0370 h1        1 MOL      0.062734
     47 H19        -6.4810   -3.7730    0.5010 h1        1 MOL      0.062734
     48 N5         -5.7270   -5.0270   -1.6940 n         1 MOL     -0.509332
     49 C16        -4.4300   -4.6580   -1.1360 c3        1 MOL      0.076538
     50 C17        -4.1840   -5.1760    0.2740 c         1 MOL      0.502757
     51 O10        -4.3370   -6.3680    0.5690 o         1 MOL     -0.563202
     52 C18        -3.2110   -5.0990   -2.0370 c3        1 MOL     -0.006863
     53 C19        -1.9440   -4.3540   -1.7910 c         1 MOL      0.340188
     54 N6         -1.1000   -4.4080   -2.7520 n         1 MOL     -0.656252
     55 O11        -1.8640   -3.5650   -0.8200 o         1 MOL     -0.413163
     56 H20        -5.7690   -5.6720   -2.4700 hn        1 MOL      0.308920
     57 H21        -4.3670   -3.5700   -1.0210 h1        1 MOL     -0.030443
     58 H22        -3.4560   -5.0560   -3.0920 hc        1 MOL      0.043688
     59 H23        -3.0410   -6.1490   -1.8130 hc        1 MOL      0.043688
     60 H24        -1.1570   -5.2460   -3.3070 hn        1 MOL      0.345419
     61 H25        -0.3120   -3.7800   -2.6850 hn        1 MOL      0.345419
     62 N7         -3.8410   -4.2320    1.1680 n         1 MOL     -0.164503
     63 C20        -3.4610   -4.6190    2.5420 c3        1 MOL     -0.310189
     64 C21        -2.0640   -5.0290    2.7540 c         1 MOL      0.553072
     65 O12        -1.6690   -5.6340    3.8000 o         1 MOL     -0.604395
     66 H26        -3.7560   -3.2620    0.8830 hn        1 MOL      0.263556
     67 H27        -4.1250   -5.4070    2.8880 h1        1 MOL      0.128771
     68 H28        -3.6530   -3.7530    3.1720 h1        1 MOL      0.128771
     69 N8         -1.1680   -4.8510    1.8160 n         1 MOL     -0.129608
     70 C22         0.2330   -5.1160    1.8660 c3        1 MOL     -0.234502
     71 C23         1.0600   -3.8850    1.5760 c         1 MOL      0.472226
     72 O13         0.6970   -3.0760    0.6840 o         1 MOL     -0.634469
     73 C24         0.6290   -6.2750    0.7800 c3        1 MOL      0.499885
     74 C25         0.0070   -7.6180    1.2050 c3        1 MOL     -0.513079
     75 O14         0.2850   -6.0120   -0.5870 oh        1 MOL     -0.679795
     76 H29        -1.5720   -4.6140    0.9280 hn        1 MOL      0.194465
     77 H30         0.4920   -5.5350    2.8400 h1        1 MOL      0.102249
     78 H31         1.7150   -6.3640    0.8020 h1        1 MOL     -0.027668
     79 H32         0.7520   -5.3490   -1.0900 ho        1 MOL      0.480275
     80 H33         0.3310   -8.2570    0.3910 hc        1 MOL      0.129456
     81 H34         0.4250   -7.9560    2.1500 hc        1 MOL      0.129456
     82 H35        -1.0830   -7.7110    1.1920 hc        1 MOL      0.129456
     83 N9          2.1790   -3.7730    2.2630 n         1 MOL     -0.335140
     84 C26         3.0580   -2.5900    2.1890 c3        1 MOL      0.142868
     85 C27         3.9940   -2.8870    1.0870 c         1 MOL      0.331268
     86 O15         4.7720   -3.8070    1.1490 o         1 MOL     -0.550342
     87 C28         3.8550   -2.4510    3.5790 c3        1 MOL      0.079993
     88 C29         4.9170   -1.2990    3.4120 c3        1 MOL     -0.123019
     89 C30         2.8000   -2.1390    4.7330 c3        1 MOL     -0.310875
     90 C31         4.4460    0.1110    2.9660 c3        1 MOL     -0.045066
     91 H36         2.4130   -4.5050    2.9080 hn        1 MOL      0.243751
     92 H37         2.4160   -1.7040    2.1140 h1        1 MOL      0.097503
     93 H38         4.4780   -3.3390    3.7050 hc        1 MOL      0.028611
     94 H39         5.6760   -1.6080    2.6940 hc        1 MOL      0.027368
     95 H40         5.4050   -1.1860    4.3830 hc        1 MOL      0.027368
     96 H41         2.0020   -2.8680    4.8420 hc        1 MOL      0.079014
     97 H42         3.1820   -2.2400    5.7520 hc        1 MOL      0.079014
     98 H43         2.2450   -1.2170    4.5310 hc        1 MOL      0.079014
     99 H44         5.3580    0.6850    2.7830 hc        1 MOL      0.026296
    100 H45         3.7840    0.0910    2.1000 hc        1 MOL      0.026296
    101 H46         3.9720    0.6370    3.7990 hc        1 MOL      0.026296
    102 N10         3.7830   -2.2760   -0.0690 n         1 MOL     -0.034957
    103 C32         4.5270   -2.5170   -1.3380 c3        1 MOL      0.000041
    104 C33         5.6370   -1.5150   -1.6690 c         1 MOL      0.495017
    105 O16         6.5500   -1.7190   -2.4600 o         1 MOL     -0.549234
    106 C34         3.4910   -2.6750   -2.4520 c3        1 MOL     -0.234635
    107 C35         2.1600   -3.3820   -2.1020 c         1 MOL      0.836261
    108 O17         2.1060   -4.6470   -2.0200 o         1 MOL     -0.732565
    109 O18         1.1280   -2.7070   -2.1600 o         1 MOL     -0.732565
    110 H47         3.0580   -1.5850   -0.1790 hn        1 MOL      0.106054
    111 H48         5.0650   -3.4610   -1.2910 h1        1 MOL      0.098384
    112 H49         3.9530   -3.2440   -3.2610 hc        1 MOL      0.054486
    113 H50         3.2000   -1.7040   -2.8600 hc        1 MOL      0.054486
    114 N11         5.7620   -0.3580   -0.9440 n         1 MOL     -0.323898
    115 C36         6.8970    0.5840   -1.0930 c3        1 MOL      0.178576
    116 C37         6.4080    2.0040   -0.7360 c         1 MOL      0.175412
    117 O19         6.1100    2.2490    0.4220 o         1 MOL     -0.413946
    118 C38         7.9730    0.1310   -0.1330 c3        1 MOL     -0.390060
    119 C39         9.2310    1.0000   -0.1380 ca        1 MOL      0.179661
    120 C40         9.6230    1.6310    1.0670 ca        1 MOL     -0.183988
    121 C41        10.1320    1.0600   -1.2470 ca        1 MOL     -0.183988
    122 C42        10.8200    2.3440    1.1970 ca        1 MOL     -0.091697
    123 C43        11.3260    1.7650   -1.1130 ca        1 MOL     -0.091697
    124 C44        11.6660    2.4310    0.0870 ca        1 MOL     -0.156861
    125 H51         5.0480   -0.1350   -0.2520 hn        1 MOL      0.143892
    126 H52         7.3280    0.5300   -2.0900 h1        1 MOL      0.085596
    127 H53         8.2380   -0.8590   -0.5030 hc        1 MOL      0.150799
    128 H54         7.5970    0.0550    0.8910 hc        1 MOL      0.150799
    129 H55         9.1080    1.4980    2.0030 ha        1 MOL      0.126502
    130 H56         9.7860    0.5810   -2.1510 ha        1 MOL      0.126502
    131 H57        11.0420    2.9000    2.0910 ha        1 MOL      0.104074
    132 H58        11.9700    1.7940   -1.9800 ha        1 MOL      0.104074
    133 H59        12.6010    2.9450    0.2120 ha        1 MOL      0.109077
    134 N12         6.4190    3.0910   -1.5720 n         1 MOL      0.051648
    135 C45         6.3210    4.5210   -1.2370 c3        1 MOL     -0.107462
    136 C46         4.9430    4.9530   -0.6260 c         1 MOL      0.422411
    137 O20         4.8140    6.0900   -0.1530 o         1 MOL     -0.520746
    138 C47         6.5310    5.2160   -2.6060 c3        1 MOL     -0.116229
    139 C48         6.1220    4.2000   -3.6880 c3        1 MOL     -0.061289
    140 C49         6.5830    2.9670   -2.9640 c3        1 MOL      0.098612
    141 H60         7.0970    4.7320   -0.5000 h1        1 MOL      0.107280
    142 H61         5.9330    6.1230   -2.5990 hc        1 MOL      0.063425
    143 H62         7.5880    5.4900   -2.6850 hc        1 MOL      0.063425
    144 H63         5.0610    4.1450   -3.9170 hc        1 MOL      0.042187
    145 H64         6.7310    4.3560   -4.5760 hc        1 MOL      0.042187
    146 H65         6.1910    2.0270   -3.3390 h1        1 MOL     -0.020146
    147 H66         7.6590    2.7670   -3.0440 h1        1 MOL     -0.020146
    148 N13         3.9470    4.0900   -0.5000 n         1 MOL     -0.200754
    149 C50         2.7960    4.3830    0.4010 c3        1 MOL     -0.167122
    150 C51         3.1600    4.8160    1.7880 c         1 MOL      0.641879
    151 O21         2.5230    5.7450    2.2230 o         1 MOL     -0.537629
    152 C52         1.7820    3.1610    0.3550 c3        1 MOL     -0.248052
    153 C53         2.3450    1.7780    0.7900 c3        1 MOL      0.116197
    154 C54         1.4240    0.6890    0.2620 c         1 MOL      0.603033
    155 O22         1.7920   -0.1710   -0.5900 o         1 MOL     -0.690424
    156 O23         0.2600    0.6250    0.7380 o         1 MOL     -0.690424
    157 H67         3.9760    3.2120   -0.9970 hn        1 MOL      0.197857
    158 H68         2.3510    5.2460   -0.0900 h1        1 MOL      0.128992
    159 H69         1.4160    3.0450   -0.6650 hc        1 MOL      0.109970
    160 H70         0.9890    3.4320    1.0520 hc        1 MOL      0.109970
    161 H71         2.4690    1.7120    1.8710 hc        1 MOL     -0.034319
    162 H72         3.3360    1.6480    0.3660 hc        1 MOL     -0.034319
    163 N14         4.2200    4.2350    2.4630 n         1 MOL     -0.308590
    164 C55         4.6720    4.7330    3.7760 c3        1 MOL     -0.097221
    165 H73         3.8510    5.2540    4.2680 h1        1 MOL      0.064218
    166 H74         4.9910    3.8940    4.3930 h1        1 MOL      0.064218
    167 H75         5.5060    5.4210    3.6370 h1        1 MOL      0.064218
    168 H76         4.7440    3.4870    2.0210 hn        1 MOL      0.203858
    169 Ca1        -0.5850   -1.3210   -0.8510 Ca        1 MOL      1.744013
    170 O24         0.0160   -0.1260   -3.1250 oh        1 MOL     -0.885856
    171 H77         0.7510   -0.3430   -3.6900 ho        1 MOL      0.423064
    172 H78        -0.4460    0.5790   -3.5930 ho        1 MOL      0.423064
    173 O25        -2.4340   -1.4270    1.1990 oh        1 MOL     -0.885856
    174 H79        -2.4400   -0.6580    1.7680 ho        1 MOL      0.423064
    175 H80        -3.3390   -1.5450    0.9330 ho        1 MOL      0.423064
@<TRIPOS>BOND
     1    1    2 1   
     2    1    4 1   
     3    1    5 1   
     4    1    6 1   
     5    2    3 2   
     6    2    7 1   
     7    7    8 1   
     8    7   15 1   
     9    8    9 1   
    10    8   11 1   
    11    8   16 1   
    12    9   10 2   
    13    9   19 1   
    14   11   12 1   
    15   11   17 1   
    16   11   18 1   
    17   12   13 1   
    18   12   14 1   
    19   19   20 1   
    20   19   24 1   
    21   20   21 1   
    22   20   23 1   
    23   20   25 1   
    24   21   22 2   
    25   21   29 1   
    26   23   26 1   
    27   23   27 1   
    28   23   28 1   
    29   29   30 1   
    30   29   37 1   
    31   30   31 1   
    32   30   33 1   
    33   30   38 1   
    34   31   32 2   
    35   31   41 1   
    36   33   34 1   
    37   33   39 1   
    38   33   40 1   
    39   34   35 1   
    40   34   36 1   
    41   41   42 1   
    42   41   45 1   
    43   42   43 1   
    44   42   46 1   
    45   42   47 1   
    46   43   44 2   
    47   43   48 1   
    48   48   49 1   
    49   48   56 1   
    50   49   50 1   
    51   49   52 1   
    52   49   57 1   
    53   50   51 2   
    54   50   62 1   
    55   52   53 1   
    56   52   58 1   
    57   52   59 1   
    58   53   54 1   
    59   53   55 2   
    60   54   60 1   
    61   54   61 1   
    62   62   63 1   
    63   62   66 1   
    64   63   64 1   
    65   63   67 1   
    66   63   68 1   
    67   64   65 2   
    68   64   69 1   
    69   69   70 1   
    70   69   76 1   
    71   70   71 1   
    72   70   73 1   
    73   70   77 1   
    74   71   72 2   
    75   71   83 1   
    76   73   74 1   
    77   73   75 1   
    78   73   78 1   
    79   74   80 1   
    80   74   81 1   
    81   74   82 1   
    82   75   79 1   
    83   83   84 1   
    84   83   91 1   
    85   84   85 1   
    86   84   87 1   
    87   84   92 1   
    88   85   86 2   
    89   85  102 1   
    90   87   88 1   
    91   87   89 1   
    92   87   93 1   
    93   88   90 1   
    94   88   94 1   
    95   88   95 1   
    96   89   96 1   
    97   89   97 1   
    98   89   98 1   
    99   90   99 1   
   100   90  100 1   
   101   90  101 1   
   102  102  103 1   
   103  102  110 1   
   104  103  104 1   
   105  103  106 1   
   106  103  111 1   
   107  104  105 2   
   108  104  114 1   
   109  106  107 1   
   110  106  112 1   
   111  106  113 1   
   112  107  108 1   
   113  107  109 1   
   114  114  115 1   
   115  114  125 1   
   116  115  116 1   
   117  115  118 1   
   118  115  126 1   
   119  116  117 2   
   120  116  134 1   
   121  118  119 1   
   122  118  127 1   
   123  118  128 1   
   124  119  120 ar  
   125  119  121 ar  
   126  120  122 ar  
   127  120  129 1   
   128  121  123 ar  
   129  121  130 1   
   130  122  124 ar  
   131  122  131 1   
   132  123  124 ar  
   133  123  132 1   
   134  124  133 1   
   135  134  135 1   
   136  134  140 1   
   137  135  136 1   
   138  135  138 1   
   139  135  141 1   
   140  136  137 2   
   141  136  148 1   
   142  138  139 1   
   143  138  142 1   
   144  138  143 1   
   145  139  140 1   
   146  139  144 1   
   147  139  145 1   
   148  140  146 1   
   149  140  147 1   
   150  148  149 1   
   151  148  157 1   
   152  149  150 1   
   153  149  152 1   
   154  149  158 1   
   155  150  151 2   
   156  150  163 1   
   157  152  153 1   
   158  152  159 1   
   159  152  160 1   
   160  153  154 1   
   161  153  161 1   
   162  153  162 1   
   163  154  155 1   
   164  154  156 1   
   165  163  164 1   
   166  163  168 1   
   167  164  165 1   
   168  164  166 1   
   169  164  167 1   
   170  170  171 1   
   171  170  172 1   
   172  173  174 1   
   173  173  175 1   
@<TRIPOS>SUBSTRUCTURE
     1 MOL         1 TEMP              0 ****  ****    0 ROOT
