@<TRIPOS>MOLECULE
MOL
  181   177     1     0     0
SMALL
resp


@<TRIPOS>ATOM
      1 C1          9.7180    7.3550   -0.0730 c3        1 MOL     -0.390142
      2 C2          8.9610    6.3130    0.8080 c         1 MOL      0.742707
      3 O1          8.1490    6.6350    1.6660 o         1 MOL     -0.587558
      4 H1         10.7660    7.3900    0.2250 hc        1 MOL      0.101418
      5 H2          9.6490    7.0640   -1.1210 hc        1 MOL      0.101418
      6 H3          9.2690    8.3390    0.0610 hc        1 MOL      0.101418
      7 N1          9.2580    5.0140    0.6500 n         1 MOL     -0.719270
      8 C3         10.0050    4.4480   -0.4480 c3        1 MOL      0.207710
      9 C4         10.8070    3.2330   -0.0680 c         1 MOL      0.459305
     10 O2         11.6350    2.7850   -0.9240 o         1 MOL     -0.550572
     11 C5          9.0470    4.1920   -1.6210 c3        1 MOL     -0.066548
     12 C6          7.8970    3.2100   -1.4300 c         1 MOL      0.743175
     13 O3          7.0480    3.0060   -2.3370 o         1 MOL     -0.766773
     14 O4          7.7590    2.5680   -0.3670 o         1 MOL     -0.766773
     15 H4          8.8240    4.3100    1.2250 hn        1 MOL      0.368794
     16 H5         10.8090    5.1130   -0.7660 h1        1 MOL      0.038018
     17 H6          9.6960    3.8350   -2.4230 hc        1 MOL      0.017570
     18 H7          8.6730    5.1150   -2.0490 hc        1 MOL      0.017570
     19 N2         10.6820    2.6420    1.1330 n         1 MOL     -0.476417
     20 C7         11.6800    1.5500    1.4710 c3        1 MOL      0.151070
     21 C8         11.1850    0.2200    1.0370 c         1 MOL      0.492695
     22 O5         12.0410   -0.6660    0.8710 o         1 MOL     -0.565345
     23 C9         11.8500    1.5930    2.9850 c3        1 MOL     -0.424514
     24 H8         10.0580    2.9410    1.8600 hn        1 MOL      0.333179
     25 H9         12.5810    1.7300    0.8920 h1        1 MOL      0.099064
     26 H10        10.9050    1.7550    3.4920 hc        1 MOL      0.120524
     27 H11        12.3920    0.7210    3.3560 hc        1 MOL      0.120524
     28 H12        12.4340    2.4480    3.3130 hc        1 MOL      0.120524
     29 N3          9.8610    0.0860    0.7290 n         1 MOL     -0.108737
     30 C10         9.1380   -1.1860    0.4680 c3        1 MOL     -0.219165
     31 C11         8.5430   -1.3490   -0.9610 c         1 MOL      0.518537
     32 O6          8.2670   -0.3740   -1.7400 o         1 MOL     -0.543719
     33 C12         8.1160   -1.4820    1.5600 c3        1 MOL     -0.125454
     34 C13         7.2980   -0.3360    1.9040 c         1 MOL      0.783493
     35 O7          6.4340   -0.1230    1.0600 o         1 MOL     -0.728373
     36 O8          7.4030    0.3120    2.9650 o         1 MOL     -0.728373
     37 H13         9.2410    0.8690    0.6390 hn        1 MOL      0.136486
     38 H14         9.9610   -1.9040    0.5050 h1        1 MOL      0.108418
     39 H15         8.6570   -1.7380    2.4760 hc        1 MOL      0.037144
     40 H16         7.4080   -2.2180    1.1670 hc        1 MOL      0.037144
     41 N4          8.2320   -2.5910   -1.4630 n         1 MOL     -0.368396
     42 C14         7.2930   -2.7810   -2.5780 c3        1 MOL     -0.085074
     43 C15         5.8200   -2.6360   -2.2790 c         1 MOL      0.783226
     44 O9          5.4120   -1.8550   -1.3940 o         1 MOL     -0.574801
     45 H17         8.5280   -3.3950   -0.9260 hn        1 MOL      0.276962
     46 H18         7.4900   -3.7370   -3.0540 h1        1 MOL      0.065355
     47 H19         7.5830   -2.0270   -3.3040 h1        1 MOL      0.065355
     48 N5          4.9670   -3.2290   -3.0640 n         1 MOL     -0.758507
     49 C16         3.5340   -3.0490   -3.0330 c3        1 MOL      0.394980
     50 C17         2.8600   -3.6920   -1.8230 c         1 MOL      0.466219
     51 O10         3.3550   -4.7240   -1.3800 o         1 MOL     -0.491322
     52 C18         2.9580   -3.7210   -4.3200 c3        1 MOL     -0.494109
     53 C19         1.4160   -3.9260   -4.3670 c         1 MOL      0.745849
     54 N6          0.5270   -2.9750   -4.1400 n         1 MOL     -0.886190
     55 O11         0.9320   -5.0160   -4.5990 o         1 MOL     -0.556205
     56 H20         5.3560   -3.8810   -3.7300 hn        1 MOL      0.352503
     57 H21         3.2320   -1.9950   -2.9840 h1        1 MOL     -0.044512
     58 H22         3.3990   -4.7180   -4.3380 hc        1 MOL      0.136609
     59 H23         3.1790   -3.2010   -5.2450 hc        1 MOL      0.136609
     60 H24         0.7440   -2.0480   -3.8160 hn        1 MOL      0.409392
     61 H25        -0.4140   -3.3180   -4.2780 hn        1 MOL      0.409392
     62 N7          1.8150   -3.1010   -1.2270 n         1 MOL     -0.394157
     63 C20         1.0280   -3.8230   -0.1960 c3        1 MOL     -0.013914
     64 C21         1.6180   -3.9160    1.2100 c         1 MOL      0.479751
     65 O12         2.6880   -3.3600    1.4730 o         1 MOL     -0.534043
     66 H26         1.5860   -2.1510   -1.4520 hn        1 MOL      0.286225
     67 H27         0.8770   -4.8740   -0.4580 h1        1 MOL      0.098111
     68 H28         0.1040   -3.2890   -0.0010 h1        1 MOL      0.098111
     69 N8          0.9800   -4.5640    2.1550 n         1 MOL     -0.254559
     70 C22        -0.3240   -5.2030    2.1740 c3        1 MOL     -0.361010
     71 C23        -1.5600   -4.2610    2.0320 c         1 MOL      0.474276
     72 O13        -2.6360   -4.7350    1.7270 o         1 MOL     -0.509649
     73 C24        -0.4570   -6.0360    3.5000 c3        1 MOL      0.366422
     74 C25         0.5800   -7.1180    3.5440 c3        1 MOL     -0.396568
     75 O14        -0.1570   -5.2500    4.6180 oh        1 MOL     -0.636855
     76 H29         1.3790   -4.5260    3.0800 hn        1 MOL      0.236603
     77 H30        -0.3500   -5.8980    1.3240 h1        1 MOL      0.153832
     78 H31        -1.4700   -6.4130    3.5960 h1        1 MOL      0.077628
     79 H32         0.5850   -5.6680    5.0580 ho        1 MOL      0.414334
     80 H33         0.4720   -7.7880    2.6900 hc        1 MOL      0.102072
     81 H34         1.6120   -6.7610    3.5540 hc        1 MOL      0.102072
     82 H35         0.3170   -7.7860    4.3680 hc        1 MOL      0.102072
     83 N9         -1.4150   -2.9730    2.4060 n         1 MOL     -0.134310
     84 C26        -2.5050   -1.9930    2.3940 c3        1 MOL     -0.035824
     85 C27        -2.5150   -1.1040    1.1160 c         1 MOL      0.420211
     86 O15        -1.4910   -0.5370    0.7420 o         1 MOL     -0.607670
     87 C28        -2.5170   -1.1760    3.7060 c3        1 MOL      0.173063
     88 C29        -2.4400   -2.1670    4.8890 c3        1 MOL      0.096161
     89 C30        -3.7640   -0.2990    3.8250 c3        1 MOL     -0.332226
     90 C31        -2.9590   -1.6960    6.2500 c3        1 MOL     -0.364787
     91 H36        -0.5360   -2.6110    2.7450 hn        1 MOL      0.173158
     92 H37        -3.4560   -2.5170    2.2910 h1        1 MOL      0.021868
     93 H38        -1.5910   -0.5850    3.7210 hc        1 MOL     -0.035814
     94 H39        -1.4360   -2.5300    5.0390 hc        1 MOL      0.003752
     95 H40        -3.0510   -3.0280    4.6050 hc        1 MOL      0.003752
     96 H41        -4.6460   -0.9000    4.0440 hc        1 MOL      0.107485
     97 H42        -3.5210    0.4090    4.6190 hc        1 MOL      0.107485
     98 H43        -3.9430    0.2060    2.8830 hc        1 MOL      0.107485
     99 H44        -2.4260   -2.3020    6.9790 hc        1 MOL      0.084264
    100 H45        -2.6200   -0.6590    6.2680 hc        1 MOL      0.084264
    101 H46        -4.0540   -1.7730    6.2940 hc        1 MOL      0.084264
    102 N10        -3.6290   -0.7480    0.5120 n         1 MOL     -0.208492
    103 C32        -5.0020   -1.3350    0.6660 c3        1 MOL      0.298151
    104 C33        -6.0300   -0.2960    0.1140 c         1 MOL      0.242223
    105 O16        -5.7060    0.5940   -0.7310 o         1 MOL     -0.480889
    106 C34        -5.1540   -2.7000   -0.0350 c3        1 MOL     -0.125375
    107 C35        -4.6810   -2.7670   -1.4650 c         1 MOL      0.687476
    108 O17        -4.7160   -3.8640   -2.0090 o         1 MOL     -0.722369
    109 O18        -4.1850   -1.7640   -2.0090 o         1 MOL     -0.722369
    110 H47        -3.6310    0.0120   -0.1470 hn        1 MOL      0.228179
    111 H48        -5.2620   -1.4670    1.7140 h1        1 MOL     -0.027277
    112 H49        -6.1940   -2.9900   -0.1350 hc        1 MOL     -0.007449
    113 H50        -4.6910   -3.4230    0.6280 hc        1 MOL     -0.007449
    114 N11        -7.3260   -0.5460    0.3670 n         1 MOL     -0.309663
    115 C36        -8.3560   -0.0440   -0.4870 c3        1 MOL      0.400975
    116 C37        -9.6680    0.3990    0.3140 c         1 MOL      0.181336
    117 O19        -9.9120   -0.2360    1.3620 o         1 MOL     -0.490931
    118 C38        -8.7590   -1.3030   -1.3440 c3        1 MOL     -0.126845
    119 C39        -9.6370   -0.9960   -2.5420 ca        1 MOL     -0.020132
    120 C40       -11.0340   -1.1230   -2.3620 ca        1 MOL     -0.070080
    121 C41        -9.1030   -0.5720   -3.7700 ca        1 MOL     -0.070080
    122 C42       -11.8700   -0.7810   -3.4230 ca        1 MOL     -0.147240
    123 C43       -10.0060   -0.3070   -4.8350 ca        1 MOL     -0.147240
    124 C44       -11.3700   -0.4590   -4.6840 ca        1 MOL     -0.139628
    125 H51        -7.4860   -1.2770    1.0480 hn        1 MOL      0.250131
    126 H52        -8.1060    0.7680   -1.1720 h1        1 MOL      0.033370
    127 H53        -9.1830   -2.1240   -0.7550 hc        1 MOL      0.052650
    128 H54        -7.8400   -1.6590   -1.8080 hc        1 MOL      0.052650
    129 H55       -11.5520   -1.6080   -1.5430 ha        1 MOL      0.112454
    130 H56        -8.0400   -0.4320   -3.8310 ha        1 MOL      0.112454
    131 H57       -12.9220   -0.7580   -3.1970 ha        1 MOL      0.100724
    132 H58        -9.6960   -0.0470   -5.8390 ha        1 MOL      0.100724
    133 H59       -11.9930   -0.1760   -5.5260 ha        1 MOL      0.103428
    134 N12       -10.4660    1.3770   -0.1140 n         1 MOL      0.045702
    135 C45       -10.2190    2.2510   -1.2650 c3        1 MOL     -0.095412
    136 C46        -8.9320    3.1460   -1.0670 c         1 MOL      0.430799
    137 O20        -8.2910    3.4940   -2.0260 o         1 MOL     -0.536272
    138 C47       -11.4200    3.1810   -1.4010 c3        1 MOL     -0.016852
    139 C48       -11.9790    3.2590    0.0410 c3        1 MOL     -0.018527
    140 C49       -11.6500    1.8380    0.5220 c3        1 MOL     -0.086466
    141 H60       -10.0780    1.7300   -2.2160 h1        1 MOL      0.078600
    142 H61       -11.1200    4.1660   -1.7600 hc        1 MOL      0.018500
    143 H62       -12.1440    2.8250   -2.1410 hc        1 MOL      0.018500
    144 H63       -11.3510    4.0000    0.5390 hc        1 MOL      0.026998
    145 H64       -13.0270    3.5420   -0.0080 hc        1 MOL      0.026998
    146 H65       -11.6690    1.8770    1.6070 h1        1 MOL      0.044711
    147 H66       -12.3560    1.0910    0.1500 h1        1 MOL      0.044711
    148 N13        -8.4920    3.2740    0.1900 n         1 MOL     -0.264648
    149 C50        -7.3650    4.1060    0.6640 c3        1 MOL     -0.010592
    150 C51        -7.5370    5.6520    0.4420 c         1 MOL      0.415755
    151 O21        -8.0720    6.3740    1.3030 o         1 MOL     -0.560570
    152 C52        -7.0330    3.7800    2.0950 c3        1 MOL      0.162898
    153 C53        -6.6670    2.3620    2.6020 c3        1 MOL      0.038259
    154 C54        -6.7220    2.1460    4.0980 c         1 MOL      0.656207
    155 O22        -5.9290    2.6960    4.9260 o         1 MOL     -0.724510
    156 O23        -7.7270    1.4570    4.5290 o         1 MOL     -0.724510
    157 H67        -9.2190    3.0910    0.8580 hn        1 MOL      0.280849
    158 H68        -6.4700    3.8040    0.1200 h1        1 MOL      0.105784
    159 H69        -7.8230    4.1270    2.7720 hc        1 MOL     -0.036567
    160 H70        -6.1690    4.3330    2.4780 hc        1 MOL     -0.036567
    161 H71        -5.6660    2.0850    2.2840 hc        1 MOL     -0.118310
    162 H72        -7.2880    1.6140    2.1190 hc        1 MOL     -0.118310
    163 N14        -7.0740    6.2010   -0.6700 n         1 MOL     -0.282560
    164 C55        -6.1350    5.7800   -1.7620 c3        1 MOL     -0.169678
    165 H73        -6.7040    5.5550   -2.6640 h1        1 MOL      0.092500
    166 H74        -5.4320    6.5880   -1.9690 h1        1 MOL      0.092500
    167 H75        -5.5870    4.8920   -1.4490 h1        1 MOL      0.092500
    168 H76        -7.3460    7.1740   -0.7310 hn        1 MOL      0.238763
    169 Ca1         5.8850    0.9200   -1.2480 Ca        1 MOL      1.723925
    170 O24         5.9690   -0.1140   -3.8130 oh        1 MOL     -0.826174
    171 H77         6.2090   -0.8380   -4.3930 ho        1 MOL      0.414416
    172 H78         5.5930    0.5400   -4.3990 ho        1 MOL      0.414416
    173 O25         4.8010    3.0520   -0.1360 oh        1 MOL     -0.826174
    174 H79         4.1430    3.2230    0.5310 ho        1 MOL      0.414416
    175 H80         5.3490    3.8330   -0.1410 ho        1 MOL      0.414416
    176 O26         3.1830    0.5780   -0.2060 oh        1 MOL     -0.826174
    177 H81         3.2790    0.1700    0.6490 ho        1 MOL      0.414416
    178 H82         2.5390    1.2730   -0.0680 ho        1 MOL      0.414416
    179 O27         3.6760    2.0940   -2.6470 oh        1 MOL     -0.826174
    180 H83         3.1500    1.9750   -3.4380 ho        1 MOL      0.414416
    181 H84         3.0880    2.5420   -2.0330 ho        1 MOL      0.414416
@<TRIPOS>BOND
     1    1    2 1   
     2    1    4 1   
     3    1    5 1   
     4    1    6 1   
     5    2    3 2   
     6    2    7 1   
     7    7    8 1   
     8    7   15 1   
     9    8    9 1   
    10    8   11 1   
    11    8   16 1   
    12    9   10 2   
    13    9   19 1   
    14   11   12 1   
    15   11   17 1   
    16   11   18 1   
    17   12   13 1   
    18   12   14 1   
    19   19   20 1   
    20   19   24 1   
    21   20   21 1   
    22   20   23 1   
    23   20   25 1   
    24   21   22 2   
    25   21   29 1   
    26   23   26 1   
    27   23   27 1   
    28   23   28 1   
    29   29   30 1   
    30   29   37 1   
    31   30   31 1   
    32   30   33 1   
    33   30   38 1   
    34   31   32 2   
    35   31   41 1   
    36   33   34 1   
    37   33   39 1   
    38   33   40 1   
    39   34   35 1   
    40   34   36 1   
    41   41   42 1   
    42   41   45 1   
    43   42   43 1   
    44   42   46 1   
    45   42   47 1   
    46   43   44 2   
    47   43   48 1   
    48   48   49 1   
    49   48   56 1   
    50   49   50 1   
    51   49   52 1   
    52   49   57 1   
    53   50   51 2   
    54   50   62 1   
    55   52   53 1   
    56   52   58 1   
    57   52   59 1   
    58   53   54 1   
    59   53   55 2   
    60   54   60 1   
    61   54   61 1   
    62   62   63 1   
    63   62   66 1   
    64   63   64 1   
    65   63   67 1   
    66   63   68 1   
    67   64   65 2   
    68   64   69 1   
    69   69   70 1   
    70   69   76 1   
    71   70   71 1   
    72   70   73 1   
    73   70   77 1   
    74   71   72 2   
    75   71   83 1   
    76   73   74 1   
    77   73   75 1   
    78   73   78 1   
    79   74   80 1   
    80   74   81 1   
    81   74   82 1   
    82   75   79 1   
    83   83   84 1   
    84   83   91 1   
    85   84   85 1   
    86   84   87 1   
    87   84   92 1   
    88   85   86 2   
    89   85  102 1   
    90   87   88 1   
    91   87   89 1   
    92   87   93 1   
    93   88   90 1   
    94   88   94 1   
    95   88   95 1   
    96   89   96 1   
    97   89   97 1   
    98   89   98 1   
    99   90   99 1   
   100   90  100 1   
   101   90  101 1   
   102  102  103 1   
   103  102  110 1   
   104  103  104 1   
   105  103  106 1   
   106  103  111 1   
   107  104  105 2   
   108  104  114 1   
   109  106  107 1   
   110  106  112 1   
   111  106  113 1   
   112  107  108 1   
   113  107  109 1   
   114  114  115 1   
   115  114  125 1   
   116  115  116 1   
   117  115  118 1   
   118  115  126 1   
   119  116  117 2   
   120  116  134 1   
   121  118  119 1   
   122  118  127 1   
   123  118  128 1   
   124  119  120 ar  
   125  119  121 ar  
   126  120  122 ar  
   127  120  129 1   
   128  121  123 ar  
   129  121  130 1   
   130  122  124 ar  
   131  122  131 1   
   132  123  124 ar  
   133  123  132 1   
   134  124  133 1   
   135  134  135 1   
   136  134  140 1   
   137  135  136 1   
   138  135  138 1   
   139  135  141 1   
   140  136  137 2   
   141  136  148 1   
   142  138  139 1   
   143  138  142 1   
   144  138  143 1   
   145  139  140 1   
   146  139  144 1   
   147  139  145 1   
   148  140  146 1   
   149  140  147 1   
   150  148  149 1   
   151  148  157 1   
   152  149  150 1   
   153  149  152 1   
   154  149  158 1   
   155  150  151 2   
   156  150  163 1   
   157  152  153 1   
   158  152  159 1   
   159  152  160 1   
   160  153  154 1   
   161  153  161 1   
   162  153  162 1   
   163  154  155 1   
   164  154  156 1   
   165  163  164 1   
   166  163  168 1   
   167  164  165 1   
   168  164  166 1   
   169  164  167 1   
   170  170  171 1   
   171  170  172 1   
   172  173  174 1   
   173  173  175 1   
   174  176  177 1   
   175  176  178 1   
   176  179  180 1   
   177  179  181 1   
@<TRIPOS>SUBSTRUCTURE
     1 MOL         1 TEMP              0 ****  ****    0 ROOT
