@<TRIPOS>MOLECULE
MOL
  186   183     1     0     0
SMALL
resp


@<TRIPOS>ATOM
      1 C1        -11.7270    4.7060    4.1190 c3        1 MOL     -0.346695
      2 C2        -11.6560    3.7950    2.8410 c         1 MOL      0.575087
      3 O1        -12.0270    2.6420    2.9200 o         1 MOL     -0.531201
      4 H1        -10.7220    4.8610    4.5100 hc        1 MOL      0.090527
      5 H2        -12.1670    5.6680    3.8570 hc        1 MOL      0.090527
      6 H3        -12.3410    4.2200    4.8780 hc        1 MOL      0.090527
      7 N1        -11.1700    4.3290    1.7020 n         1 MOL     -0.106389
      8 C3        -11.2820    3.5730    0.4560 c3        1 MOL     -0.776369
      9 C4        -10.1160    2.4610    0.3760 c         1 MOL      0.570877
     10 O2         -8.9870    2.7090    0.8170 o         1 MOL     -0.626013
     11 C5        -11.2050    4.4900   -0.7720 c3        1 MOL      0.690974
     12 C6        -10.1360    5.5050   -0.9000 c         1 MOL      0.507944
     13 O3         -9.3610    5.6770    0.0680 o         1 MOL     -0.675660
     14 O4        -10.0040    6.1650   -1.9550 o         1 MOL     -0.675660
     15 H4        -10.7610    5.2450    1.5990 hn        1 MOL      0.102093
     16 H5        -12.2580    3.0970    0.4840 h1        1 MOL      0.218951
     17 H6        -12.1500    5.0110   -0.9190 hc        1 MOL     -0.094046
     18 H7        -11.1690    3.7830   -1.6030 hc        1 MOL     -0.094046
     19 N2        -10.3770    1.3330   -0.2950 n         1 MOL     -0.371156
     20 C7         -9.6290    0.0650   -0.2750 c3        1 MOL      0.120527
     21 C8         -8.4100    0.1550   -1.1590 c         1 MOL      0.296588
     22 O5         -8.2410   -0.6740   -2.0010 o         1 MOL     -0.496886
     23 C9        -10.5130   -1.1410   -0.5560 c3        1 MOL     -0.149129
     24 C10       -10.1280   -2.2260    0.3920 c3        1 MOL     -0.162243
     25 C11        -8.6770   -2.8610    0.2740 c3        1 MOL      0.303685
     26 C12        -8.6950   -4.2890    0.9440 c3        1 MOL     -0.208436
     27 N3         -7.3730   -4.9870    0.9130 n4        1 MOL     -0.280909
     28 H8        -11.2670    1.3250   -0.7630 hn        1 MOL      0.285618
     29 H9         -9.3850   -0.0910    0.7780 h1        1 MOL      0.091707
     30 H10       -10.3920   -1.4980   -1.5820 hc        1 MOL      0.107483
     31 H11       -11.5650   -0.9070   -0.3960 hc        1 MOL      0.107483
     32 H12       -10.7900   -3.0630    0.1450 hc        1 MOL      0.026217
     33 H13       -10.3140   -1.8580    1.4060 hc        1 MOL      0.026217
     34 H14        -7.9470   -2.1910    0.7330 hc        1 MOL     -0.036027
     35 H15        -8.3130   -3.0060   -0.7410 hc        1 MOL     -0.036027
     36 H16        -9.4740   -4.8490    0.4340 hx        1 MOL      0.122728
     37 H17        -8.9970   -4.1580    1.9840 hx        1 MOL      0.122728
     38 H18        -6.6650   -4.4810    1.4200 hn        1 MOL      0.292300
     39 H19        -7.4530   -5.8620    1.4080 hn        1 MOL      0.292300
     40 H20        -6.9910   -5.1120   -0.0160 hn        1 MOL      0.292300
     41 N4         -7.6300    1.1500   -0.9630 n         1 MOL      0.365501
     42 C13        -6.2530    1.2200   -1.3540 c3        1 MOL     -0.897225
     43 C14        -5.3600    1.7480   -0.1440 c         1 MOL      0.691582
     44 O6         -5.8690    2.5380    0.6610 o         1 MOL     -0.722039
     45 C15        -5.9120    2.0080   -2.6630 c3        1 MOL     -0.295179
     46 C16        -6.2070    3.4670   -2.6930 c         1 MOL      0.701585
     47 O7         -6.0960    3.9500   -3.8190 o         1 MOL     -0.659127
     48 O8         -6.7100    4.1320   -1.7060 o         1 MOL     -0.659127
     49 H21        -7.9100    1.7770   -0.2280 hn        1 MOL      0.059163
     50 H22        -5.9200    0.2150   -1.6240 h1        1 MOL      0.316033
     51 H23        -6.5330    1.5590   -3.4360 hc        1 MOL      0.185179
     52 H24        -4.8560    1.9420   -2.9420 hc        1 MOL      0.185179
     53 N5         -4.0430    1.4870    0.0500 n         1 MOL     -0.369727
     54 C17        -3.2970    0.4710   -0.6930 c3        1 MOL     -0.118121
     55 C18        -3.7560   -0.9680   -0.5210 c         1 MOL      0.718528
     56 O9         -4.2210   -1.3130    0.5860 o         1 MOL     -0.589246
     57 H25        -3.5210    2.0170    0.7440 hn        1 MOL      0.285429
     58 H26        -2.2720    0.4800   -0.3310 h1        1 MOL      0.083277
     59 H27        -3.3460    0.7270   -1.7460 h1        1 MOL      0.083277
     60 N6         -3.7100   -1.8380   -1.5260 n         1 MOL     -0.671348
     61 C19        -4.4160   -3.1290   -1.5360 c3        1 MOL      0.182061
     62 C20        -3.3960   -4.3300   -1.7910 c         1 MOL      0.465105
     63 O10        -2.4650   -4.1320   -2.6130 o         1 MOL     -0.484270
     64 C21        -5.6310   -3.0130   -2.4930 c3        1 MOL     -0.042161
     65 C22        -6.4690   -4.2720   -2.5370 c         1 MOL      0.690025
     66 O11        -7.3440   -4.4320   -3.3490 o         1 MOL     -0.667214
     67 O12        -6.3200   -5.1560   -1.6670 o         1 MOL     -0.667214
     68 H28        -3.3900   -1.5290   -2.4250 hn        1 MOL      0.333633
     69 H29        -4.7660   -3.3020   -0.5150 h1        1 MOL     -0.006652
     70 H30        -5.4480   -2.6540   -3.5060 hc        1 MOL      0.029391
     71 H31        -6.2480   -2.3700   -1.8730 hc        1 MOL      0.029391
     72 N7         -3.5600   -5.5170   -1.1890 n         1 MOL     -0.320722
     73 C23        -2.5170   -6.5390   -1.1450 c3        1 MOL     -0.138040
     74 C24        -1.2730   -6.2330   -0.2790 c         1 MOL      0.494473
     75 O13        -0.2130   -6.8040   -0.5480 o         1 MOL     -0.554036
     76 H32        -4.3610   -5.6760   -0.5920 hn        1 MOL      0.166227
     77 H33        -2.1890   -6.7300   -2.1690 h1        1 MOL      0.120246
     78 H34        -2.9050   -7.4950   -0.7760 h1        1 MOL      0.120246
     79 N8         -1.3610   -5.4180    0.7430 n         1 MOL     -0.344680
     80 C25        -0.1830   -4.7920    1.4030 c3        1 MOL      0.046960
     81 C26         0.2240   -3.5500    0.5080 c         1 MOL      0.572883
     82 O14        -0.6410   -2.8860   -0.1000 o         1 MOL     -0.507778
     83 C27        -0.3150   -4.5140    2.9020 c3        1 MOL      0.216119
     84 C28        -1.3280   -3.4420    3.3830 c3        1 MOL     -0.222970
     85 O15        -0.6190   -5.7480    3.5020 oh        1 MOL     -0.632302
     86 H35        -2.2860   -5.0510    0.9000 hn        1 MOL      0.262981
     87 H36         0.6570   -5.4800    1.3130 h1        1 MOL      0.078566
     88 H37         0.6660   -4.1850    3.2370 h1        1 MOL      0.023347
     89 H38        -0.3280   -5.7620    4.4150 ho        1 MOL      0.412037
     90 H39        -1.1940   -3.0220    4.3720 hc        1 MOL      0.061551
     91 H40        -1.3820   -2.6610    2.6220 hc        1 MOL      0.061551
     92 H41        -2.3380   -3.8560    3.3100 hc        1 MOL      0.061551
     93 N9          1.5020   -3.1620    0.5940 n         1 MOL     -0.425114
     94 C29         2.1370   -1.9160    0.0720 c3        1 MOL     -0.057235
     95 C30         3.5750   -2.0700   -0.5080 c         1 MOL      0.480262
     96 O16         3.9340   -1.3180   -1.4750 o         1 MOL     -0.514624
     97 C31         2.1920   -0.7870    1.0850 c3        1 MOL      0.037067
     98 C32         2.9720   -1.1300    2.3720 c3        1 MOL      0.149319
     99 C33         0.7530   -0.3190    1.4250 c3        1 MOL     -0.104529
    100 C34         3.0460    0.0230    3.3290 c3        1 MOL     -0.300257
    101 H42         2.0810   -3.7840    1.1370 hn        1 MOL      0.237406
    102 H43         1.5100   -1.5400   -0.7440 h1        1 MOL      0.131108
    103 H44         2.6980    0.0910    0.6790 hc        1 MOL      0.046970
    104 H45         4.0070   -1.3860    2.1480 hc        1 MOL     -0.020591
    105 H46         2.4230   -1.9210    2.8730 hc        1 MOL     -0.020591
    106 H47         0.1460   -0.1630    0.5330 hc        1 MOL      0.033963
    107 H48         0.2280   -0.8980    2.1830 hc        1 MOL      0.033963
    108 H49         0.8690    0.6940    1.8050 hc        1 MOL      0.033963
    109 H50         3.1970    0.9440    2.7740 hc        1 MOL      0.074704
    110 H51         2.1880    0.2320    3.9580 hc        1 MOL      0.074704
    111 H52         3.9360   -0.1230    3.9450 hc        1 MOL      0.074704
    112 N10         4.3580   -3.0470    0.0100 n         1 MOL     -0.406707
    113 C35         5.7350   -3.3570   -0.4220 c3        1 MOL     -0.030828
    114 C36         6.7240   -3.2750    0.7930 c         1 MOL      0.498015
    115 O17         6.6990   -3.8810    1.8820 o         1 MOL     -0.532661
    116 C37         5.7360   -4.7590   -1.1160 c3        1 MOL      0.504196
    117 C38         4.6890   -4.8020   -2.1860 c3        1 MOL     -0.317539
    118 O18         6.9190   -5.1290   -1.5350 oh        1 MOL     -0.699162
    119 H53         3.9020   -3.6490    0.6920 hn        1 MOL      0.229000
    120 H54         6.0500   -2.6070   -1.1410 h1        1 MOL      0.117763
    121 H55         5.4280   -5.4910   -0.3820 h1        1 MOL     -0.048178
    122 H56         6.9180   -6.0420   -1.8410 ho        1 MOL      0.431945
    123 H57         4.7000   -5.7430   -2.7430 hc        1 MOL      0.082250
    124 H58         3.7400   -4.7760   -1.6530 hc        1 MOL      0.082250
    125 H59         4.8830   -3.9410   -2.8200 hc        1 MOL      0.082250
    126 N11         7.8310   -2.5550    0.5460 n         1 MOL     -0.435618
    127 C39         8.9080   -2.1560    1.5190 c3        1 MOL     -0.053371
    128 C40         9.5000   -0.7440    1.4670 c         1 MOL      0.572085
    129 O19         9.8340   -0.2300    2.5550 o         1 MOL     -0.531211
    130 C41        10.0940   -3.1680    1.5610 c3        1 MOL      0.290208
    131 C42        11.0600   -3.0940    2.7750 c3        1 MOL     -0.394498
    132 O20        10.9100   -3.1800    0.4390 oh        1 MOL     -0.581206
    133 H60         7.8350   -2.2060   -0.3960 hn        1 MOL      0.260556
    134 H61         8.4370   -2.1890    2.4980 h1        1 MOL      0.138869
    135 H62         9.6700   -4.1640    1.6340 h1        1 MOL      0.047774
    136 H63        10.3380   -3.6400   -0.1970 ho        1 MOL      0.362693
    137 H64        10.5030   -3.1750    3.7110 hc        1 MOL      0.115218
    138 H65        11.6990   -3.9770    2.7440 hc        1 MOL      0.115218
    139 H66        11.6840   -2.2030    2.7270 hc        1 MOL      0.115218
    140 N12         9.6130   -0.1260    0.2650 n         1 MOL     -0.488049
    141 C43        10.2570    1.1980    0.2030 c3        1 MOL      0.074634
    142 C44         9.4750    2.2940   -0.6180 c         1 MOL      0.497381
    143 O21         8.8940    1.9350   -1.6030 o         1 MOL     -0.503924
    144 C45        11.7430    0.9900   -0.2390 c3        1 MOL     -0.172353
    145 C46        12.5480    2.2750   -0.5510 c3        1 MOL      0.092540
    146 C47        14.0520    1.9050   -0.6320 c3        1 MOL     -0.122118
    147 C48        14.3060    0.8710   -1.7420 c3        1 MOL      0.212836
    148 N13        15.7280    0.3450   -1.7320 n4        1 MOL     -0.366792
    149 H67         9.1040   -0.4240   -0.5550 hn        1 MOL      0.296957
    150 H68        10.3390    1.5530    1.2280 h1        1 MOL      0.053924
    151 H69        11.7290    0.3820   -1.1410 hc        1 MOL      0.070292
    152 H70        12.2560    0.3670    0.4940 hc        1 MOL      0.070292
    153 H71        12.4150    2.8850    0.3410 hc        1 MOL      0.000399
    154 H72        12.0950    2.8270   -1.3770 hc        1 MOL      0.000399
    155 H73        14.4200    1.3760    0.2440 hc        1 MOL      0.056160
    156 H74        14.5080    2.8370   -0.9550 hc        1 MOL      0.056160
    157 H75        14.1270    1.3390   -2.7090 hx        1 MOL      0.028628
    158 H76        13.6560    0.0060   -1.6680 hx        1 MOL      0.028628
    159 H77        15.9320   -0.2080   -0.9090 hn        1 MOL      0.294100
    160 H78        15.8290   -0.2350   -2.5530 hn        1 MOL      0.294100
    161 H79        16.4130    1.0810   -1.7330 hn        1 MOL      0.294100
    162 N14         9.4430    3.5660   -0.2320 n         1 MOL     -0.368314
    163 C49         8.8380    4.6480   -1.0400 c3        1 MOL      0.315515
    164 C50         7.2770    4.7630   -1.1170 c         1 MOL      0.305692
    165 O22         6.7640    4.6490   -2.2430 o         1 MOL     -0.518324
    166 C51         9.3180    6.0250   -0.6340 c3        1 MOL     -0.087043
    167 C52        10.8730    6.2750   -0.6760 c3        1 MOL     -0.159179
    168 C53        11.4220    7.5160    0.0440 c         1 MOL      0.644979
    169 O23        12.6230    7.4650    0.4410 o         1 MOL     -0.673622
    170 O24        10.6120    8.4720    0.1900 o         1 MOL     -0.673622
    171 H80        10.0940    3.8430    0.4840 hn        1 MOL      0.261684
    172 H81         9.2280    4.5270   -2.0500 h1        1 MOL     -0.008662
    173 H82         9.0400    6.2490    0.3960 hc        1 MOL      0.056490
    174 H83         8.8840    6.7820   -1.2980 hc        1 MOL      0.056490
    175 H84        11.1490    6.2860   -1.7280 hc        1 MOL      0.017416
    176 H85        11.3600    5.3580   -0.3340 hc        1 MOL      0.017416
    177 N15         6.4340    4.7050   -0.0770 n         1 MOL     -0.321416
    178 C54         6.7530    4.6860    1.3420 c3        1 MOL      0.034987
    179 H86         6.9030    5.7070    1.6930 h1        1 MOL      0.017603
    180 H87         5.9310    4.2290    1.8940 h1        1 MOL      0.017603
    181 H88         7.6650    4.1100    1.5020 h1        1 MOL      0.017603
    182 H89         5.4740    4.8950   -0.3370 hn        1 MOL      0.283691
    183 Ca1        -6.9640    4.9850    0.8970 Ca        1 MOL      1.691877
    184 O25        -7.5700    3.5180    2.9440 oh        1 MOL     -0.848135
    185 H90        -8.1290    2.8670    2.5140 ho        1 MOL      0.439429
    186 H91        -7.3630    3.1320    3.7920 ho        1 MOL      0.439429
@<TRIPOS>BOND
     1    1    2 1   
     2    1    4 1   
     3    1    5 1   
     4    1    6 1   
     5    2    3 2   
     6    2    7 1   
     7    7    8 1   
     8    7   15 1   
     9    8    9 1   
    10    8   11 1   
    11    8   16 1   
    12    9   10 2   
    13    9   19 1   
    14   11   12 1   
    15   11   17 1   
    16   11   18 1   
    17   12   13 1   
    18   12   14 1   
    19   19   20 1   
    20   19   28 1   
    21   20   21 1   
    22   20   23 1   
    23   20   29 1   
    24   21   22 2   
    25   21   41 1   
    26   23   24 1   
    27   23   30 1   
    28   23   31 1   
    29   24   25 1   
    30   24   32 1   
    31   24   33 1   
    32   25   26 1   
    33   25   34 1   
    34   25   35 1   
    35   26   27 1   
    36   26   36 1   
    37   26   37 1   
    38   27   38 1   
    39   27   39 1   
    40   27   40 1   
    41   41   42 1   
    42   41   49 1   
    43   42   43 1   
    44   42   45 1   
    45   42   50 1   
    46   43   44 2   
    47   43   53 1   
    48   45   46 1   
    49   45   51 1   
    50   45   52 1   
    51   46   47 1   
    52   46   48 1   
    53   53   54 1   
    54   53   57 1   
    55   54   55 1   
    56   54   58 1   
    57   54   59 1   
    58   55   56 2   
    59   55   60 1   
    60   60   61 1   
    61   60   68 1   
    62   61   62 1   
    63   61   64 1   
    64   61   69 1   
    65   62   63 2   
    66   62   72 1   
    67   64   65 1   
    68   64   70 1   
    69   64   71 1   
    70   65   66 1   
    71   65   67 1   
    72   72   73 1   
    73   72   76 1   
    74   73   74 1   
    75   73   77 1   
    76   73   78 1   
    77   74   75 2   
    78   74   79 1   
    79   79   80 1   
    80   79   86 1   
    81   80   81 1   
    82   80   83 1   
    83   80   87 1   
    84   81   82 2   
    85   81   93 1   
    86   83   84 1   
    87   83   85 1   
    88   83   88 1   
    89   84   90 1   
    90   84   91 1   
    91   84   92 1   
    92   85   89 1   
    93   93   94 1   
    94   93  101 1   
    95   94   95 1   
    96   94   97 1   
    97   94  102 1   
    98   95   96 2   
    99   95  112 1   
   100   97   98 1   
   101   97   99 1   
   102   97  103 1   
   103   98  100 1   
   104   98  104 1   
   105   98  105 1   
   106   99  106 1   
   107   99  107 1   
   108   99  108 1   
   109  100  109 1   
   110  100  110 1   
   111  100  111 1   
   112  112  113 1   
   113  112  119 1   
   114  113  114 1   
   115  113  116 1   
   116  113  120 1   
   117  114  115 2   
   118  114  126 1   
   119  116  117 1   
   120  116  118 1   
   121  116  121 1   
   122  117  123 1   
   123  117  124 1   
   124  117  125 1   
   125  118  122 1   
   126  126  127 1   
   127  126  133 1   
   128  127  128 1   
   129  127  130 1   
   130  127  134 1   
   131  128  129 2   
   132  128  140 1   
   133  130  131 1   
   134  130  132 1   
   135  130  135 1   
   136  131  137 1   
   137  131  138 1   
   138  131  139 1   
   139  132  136 1   
   140  140  141 1   
   141  140  149 1   
   142  141  142 1   
   143  141  144 1   
   144  141  150 1   
   145  142  143 2   
   146  142  162 1   
   147  144  145 1   
   148  144  151 1   
   149  144  152 1   
   150  145  146 1   
   151  145  153 1   
   152  145  154 1   
   153  146  147 1   
   154  146  155 1   
   155  146  156 1   
   156  147  148 1   
   157  147  157 1   
   158  147  158 1   
   159  148  159 1   
   160  148  160 1   
   161  148  161 1   
   162  162  163 1   
   163  162  171 1   
   164  163  164 1   
   165  163  166 1   
   166  163  172 1   
   167  164  165 2   
   168  164  177 1   
   169  166  167 1   
   170  166  173 1   
   171  166  174 1   
   172  167  168 1   
   173  167  175 1   
   174  167  176 1   
   175  168  169 1   
   176  168  170 1   
   177  177  178 1   
   178  177  182 1   
   179  178  179 1   
   180  178  180 1   
   181  178  181 1   
   182  184  185 1   
   183  184  186 1   
@<TRIPOS>SUBSTRUCTURE
     1 MOL         1 TEMP              0 ****  ****    0 ROOT
