@<TRIPOS>MOLECULE
MOL
  198   191     1     0     0
SMALL
resp


@<TRIPOS>ATOM
      1 C1          3.5460    3.2050   -2.6870 c3        1 MOL     -0.349817
      2 C2          4.5280    2.2020   -3.3120 c         1 MOL      0.641611
      3 O1          4.1050    1.2860   -4.0270 o         1 MOL     -0.578565
      4 H1          2.5240    2.8720   -2.8650 hc        1 MOL      0.088575
      5 H2          3.7260    3.2690   -1.6140 hc        1 MOL      0.088575
      6 H3          3.6910    4.1870   -3.1400 hc        1 MOL      0.088575
      7 N1          5.8140    2.3830   -3.0180 n         1 MOL     -0.480827
      8 C3          6.9670    1.3760   -3.3680 c3        1 MOL      0.021250
      9 C4          6.7310    0.0210   -2.5860 c         1 MOL      0.450394
     10 O2          5.7390   -0.1660   -1.7750 o         1 MOL     -0.405372
     11 C5          8.3470    2.0080   -3.0660 c3        1 MOL     -0.230601
     12 C6          8.4700    2.7070   -1.6000 c         1 MOL      0.951615
     13 O3          9.5370    2.7040   -0.9440 o         1 MOL     -0.835095
     14 O4          7.5360    3.4010   -1.1280 o         1 MOL     -0.835095
     15 H4          6.0610    3.1530   -2.4050 hn        1 MOL      0.284975
     16 H5          6.9570    1.2690   -4.4530 h1        1 MOL      0.084621
     17 H6          8.5540    2.8590   -3.7050 hc        1 MOL      0.055359
     18 H7          9.1880    1.3150   -3.1570 hc        1 MOL      0.055359
     19 N2          7.7390   -0.7510   -2.5440 n         1 MOL     -0.463233
     20 C7          7.7380   -2.0950   -1.8230 c3        1 MOL      0.075172
     21 C8          7.8430   -2.0260   -0.2670 c         1 MOL      0.484273
     22 O5          7.6980   -3.0950    0.3490 o         1 MOL     -0.528794
     23 C9          8.9500   -2.9880   -2.3150 c3        1 MOL     -0.253076
     24 C10        10.3150   -2.3180   -2.1010 c3        1 MOL     -0.040368
     25 C11        11.5000   -3.1900   -2.4770 c3        1 MOL     -0.035410
     26 C12        12.8780   -2.5710   -2.6210 c3        1 MOL      0.046907
     27 N3         13.2970   -1.7270   -1.4900 n4        1 MOL     -0.339968
     28 H8          8.5640   -0.4860   -3.0720 hn        1 MOL      0.283424
     29 H9          6.8190   -2.6830   -1.9000 h1        1 MOL      0.122738
     30 H10         8.7280   -3.2950   -3.3440 hc        1 MOL      0.099909
     31 H11         8.9760   -3.8990   -1.7370 hc        1 MOL      0.099909
     32 H12        10.4400   -2.2430   -1.0160 hc        1 MOL      0.051292
     33 H13        10.4080   -1.3280   -2.5470 hc        1 MOL      0.051292
     34 H14        11.3800   -3.6620   -3.4540 hc        1 MOL      0.057463
     35 H15        11.6690   -3.9770   -1.7510 hc        1 MOL      0.057463
     36 H16        12.8920   -2.1040   -3.6050 hx        1 MOL      0.058822
     37 H17        13.6400   -3.3560   -2.7090 hx        1 MOL      0.058822
     38 H18        13.0930   -2.2340   -0.6360 hn        1 MOL      0.331665
     39 H19        14.1900   -1.2540   -1.5100 hn        1 MOL      0.331665
     40 H20        12.6750   -0.9300   -1.5080 hn        1 MOL      0.331665
     41 N4          8.0420   -0.8540    0.3260 n         1 MOL     -0.388978
     42 C13         7.8040   -0.6420    1.7600 c3        1 MOL      0.297524
     43 C14         6.9320    0.6550    1.8710 c         1 MOL      0.398356
     44 O6          7.1490    1.5890    1.1600 o         1 MOL     -0.497732
     45 C15         9.1340   -0.4680    2.4630 c3        1 MOL     -0.594647
     46 C16        10.1410    0.5340    1.7670 c         1 MOL      0.956433
     47 O7         11.0690    0.1270    1.0640 o         1 MOL     -0.785302
     48 O8          9.9870    1.7100    2.0460 o         1 MOL     -0.785302
     49 H21         8.0970   -0.0090   -0.2260 hn        1 MOL      0.213850
     50 H22         7.2450   -1.4300    2.2680 h1        1 MOL      0.081793
     51 H23         9.5970   -1.4480    2.4770 hc        1 MOL      0.140167
     52 H24         8.9310   -0.0850    3.4660 hc        1 MOL      0.140167
     53 N5          5.8560    0.7540    2.7190 n         1 MOL     -0.508443
     54 C17         5.4640   -0.2180    3.7240 c3        1 MOL     -0.060267
     55 C18         4.4180   -1.2290    3.2690 c         1 MOL      0.548482
     56 O9          4.2360   -1.3870    2.0620 o         1 MOL     -0.442064
     57 H25         5.3360    1.6110    2.6840 hn        1 MOL      0.350988
     58 H26         5.1780    0.3580    4.6000 h1        1 MOL      0.084643
     59 H27         6.2820   -0.7000    4.2480 h1        1 MOL      0.084643
     60 N6          3.7370   -1.9100    4.2660 n         1 MOL     -0.549025
     61 C19         2.8890   -3.0610    4.0200 c3        1 MOL      0.050959
     62 C20         1.7550   -2.8690    2.9910 c         1 MOL      0.623027
     63 O10         1.1630   -1.8160    2.9290 o         1 MOL     -0.545320
     64 C21         2.3650   -3.6380    5.3960 c3        1 MOL     -0.106850
     65 C22         3.3500   -3.7660    6.5940 c         1 MOL      0.706979
     66 O11         2.9050   -3.5630    7.7490 o         1 MOL     -0.700726
     67 O12         4.5240   -4.1000    6.3360 o         1 MOL     -0.700726
     68 H28         3.9890   -1.6590    5.2090 hn        1 MOL      0.313144
     69 H29         3.4430   -3.8050    3.4410 h1        1 MOL      0.019498
     70 H30         1.9770   -4.6230    5.1520 hc        1 MOL      0.011633
     71 H31         1.4770   -3.1120    5.7680 hc        1 MOL      0.011633
     72 N7          1.4450   -3.9090    2.2150 n         1 MOL     -0.521875
     73 C23         0.1540   -4.0120    1.5050 c3        1 MOL      0.001391
     74 C24         0.1380   -3.6820    0.0080 c         1 MOL      0.506216
     75 O13        -0.4380   -4.4850   -0.7700 o         1 MOL     -0.577352
     76 H32         1.9770   -4.7720    2.2780 hn        1 MOL      0.317415
     77 H33        -0.5760   -3.3950    2.0430 h1        1 MOL      0.058731
     78 H34        -0.2790   -5.0120    1.4920 h1        1 MOL      0.058731
     79 N8          0.7020   -2.5530   -0.3960 n         1 MOL     -0.294353
     80 C25         0.8710   -2.1270   -1.7420 c3        1 MOL     -0.155748
     81 C26         0.1630   -0.8500   -1.9650 c         1 MOL      0.675200
     82 O14         0.2660    0.0340   -1.1540 o         1 MOL     -0.569662
     83 C27         2.3890   -1.8550   -1.9950 c3        1 MOL      0.393518
     84 C28         3.3380   -2.8470   -1.2440 c3        1 MOL     -0.244251
     85 O15         2.4820   -2.0200   -3.3830 oh        1 MOL     -0.672714
     86 H35         1.0930   -2.0380    0.3820 hn        1 MOL      0.253059
     87 H36         0.4720   -2.8840   -2.4200 h1        1 MOL      0.088886
     88 H37         2.6410   -0.8590   -1.6460 h1        1 MOL      0.022082
     89 H38         3.3110   -2.4690   -3.5610 ho        1 MOL      0.407982
     90 H39         3.2570   -2.7620   -0.1630 hc        1 MOL      0.048407
     91 H40         3.2310   -3.8610   -1.6190 hc        1 MOL      0.048407
     92 H41         4.3010   -2.5150   -1.6230 hc        1 MOL      0.048407
     93 N9         -0.6650   -0.7970   -2.9570 n         1 MOL     -0.434645
     94 C29        -1.7850    0.2480   -3.1300 c3        1 MOL      0.058345
     95 C30        -2.9150    0.1580   -2.0200 c         1 MOL      0.425613
     96 O16        -3.3740    1.1340   -1.5060 o         1 MOL     -0.544039
     97 C31        -2.3460    0.1370   -4.5450 c3        1 MOL      0.087078
     98 C32        -1.2840    0.0750   -5.6950 c3        1 MOL     -0.043403
     99 C33        -3.2500    1.3410   -4.7950 c3        1 MOL     -0.343459
    100 C34        -0.1310    1.0990   -5.5330 c3        1 MOL     -0.263671
    101 H42        -0.7610   -1.6310   -3.5150 hn        1 MOL      0.269346
    102 H43        -1.3340    1.2090   -2.9270 h1        1 MOL      0.088235
    103 H44        -2.9830   -0.7530   -4.5420 hc        1 MOL      0.002643
    104 H45        -1.7750    0.2380   -6.6540 hc        1 MOL      0.026436
    105 H46        -0.9740   -0.9680   -5.7870 hc        1 MOL      0.026436
    106 H47        -3.4350    1.4210   -5.8680 hc        1 MOL      0.092752
    107 H48        -4.1600    1.1900   -4.2310 hc        1 MOL      0.092752
    108 H49        -2.7570    2.2690   -4.4980 hc        1 MOL      0.092752
    109 H50         0.4810    0.8510   -4.6670 hc        1 MOL      0.085547
    110 H51         0.4310    1.2070   -6.4630 hc        1 MOL      0.085547
    111 H52        -0.5360    2.0710   -5.2630 hc        1 MOL      0.085547
    112 N10        -3.3570   -1.0060   -1.6970 n         1 MOL     -0.162733
    113 C35        -4.3890   -1.3280   -0.6980 c3        1 MOL      0.041630
    114 C36        -5.5850   -2.1500   -1.2970 c         1 MOL      0.425231
    115 O17        -5.2980   -3.0950   -2.0550 o         1 MOL     -0.489937
    116 C37        -3.7880   -2.1000    0.5620 c3        1 MOL      0.261887
    117 C38        -2.4730   -1.4380    1.1500 c3        1 MOL     -0.404442
    118 O18        -4.7860   -2.0430    1.5290 oh        1 MOL     -0.606971
    119 H53        -3.0280   -1.7640   -2.2880 hn        1 MOL      0.154104
    120 H54        -4.7710   -0.3460   -0.4110 h1        1 MOL      0.089986
    121 H55        -3.5550   -3.1050    0.2300 h1        1 MOL      0.007129
    122 H56        -4.4270   -2.7230    2.1110 ho        1 MOL      0.391219
    123 H57        -2.5830   -0.3520    1.1360 hc        1 MOL      0.124920
    124 H58        -2.3360   -1.7610    2.1790 hc        1 MOL      0.124920
    125 H59        -1.6670   -1.6360    0.4500 hc        1 MOL      0.124920
    126 N11        -6.8620   -1.7910   -1.0210 n         1 MOL     -0.443935
    127 C39        -8.0350   -2.3720   -1.6330 c3        1 MOL     -0.104933
    128 C40        -9.3650   -1.5750   -1.6190 c         1 MOL      0.613645
    129 O19       -10.1440   -1.6150   -2.5890 o         1 MOL     -0.571598
    130 C41        -8.2410   -3.8080   -1.0490 c3        1 MOL      0.404769
    131 C42        -8.8960   -4.7130   -2.1300 c3        1 MOL     -0.425605
    132 O20        -9.0860   -3.8680    0.0620 oh        1 MOL     -0.603718
    133 H60        -7.0100   -1.0420   -0.3600 hn        1 MOL      0.283188
    134 H61        -7.7520   -2.4620   -2.6880 h1        1 MOL      0.133499
    135 H62        -7.3320   -4.3330   -0.7550 h1        1 MOL      0.035577
    136 H63        -8.6630   -3.3960    0.7730 ho        1 MOL      0.355034
    137 H64        -9.0650   -5.7010   -1.7010 hc        1 MOL      0.112764
    138 H65        -9.8930   -4.3550   -2.3790 hc        1 MOL      0.112764
    139 H66        -8.2420   -4.7360   -2.9950 hc        1 MOL      0.112764
    140 N12        -9.6960   -0.9060   -0.5410 n         1 MOL     -0.568939
    141 C43       -11.0180   -0.2760   -0.2240 c3        1 MOL      0.375848
    142 C44       -10.8900    0.9530    0.6450 c         1 MOL      0.272944
    143 O21       -10.0010    0.9920    1.5360 o         1 MOL     -0.468006
    144 C45       -11.9440   -1.3150    0.4470 c3        1 MOL     -0.396001
    145 C46       -13.4300   -1.0860    0.2310 c3        1 MOL      0.093087
    146 C47       -14.4150   -1.8590    1.0260 c3        1 MOL     -0.231404
    147 C48       -15.8840   -1.5750    0.5430 c3        1 MOL      0.169335
    148 N13       -16.9380   -2.3400    1.1980 n4        1 MOL     -0.286711
    149 H67        -9.0400   -0.8140    0.2290 hn        1 MOL      0.293375
    150 H68       -11.5240    0.0120   -1.1490 h1        1 MOL      0.018699
    151 H69       -11.6660   -1.2430    1.4950 hc        1 MOL      0.144190
    152 H70       -11.6630   -2.2870    0.0460 hc        1 MOL      0.144190
    153 H71       -13.6520   -1.1270   -0.8370 hc        1 MOL      0.027032
    154 H72       -13.7290   -0.0760    0.5240 hc        1 MOL      0.027032
    155 H73       -14.3170   -1.5360    2.0670 hc        1 MOL      0.084003
    156 H74       -14.2620   -2.9350    0.9610 hc        1 MOL      0.084003
    157 H75       -16.1290   -1.7200   -0.5110 hx        1 MOL      0.039096
    158 H76       -16.0670   -0.4970    0.6440 hx        1 MOL      0.039096
    159 H77       -16.9930   -3.1890    0.6540 hn        1 MOL      0.262636
    160 H78       -16.7400   -2.5780    2.1570 hn        1 MOL      0.262636
    161 H79       -17.7540   -1.7830    1.0100 hn        1 MOL      0.262636
    162 N14       -11.8410    1.8710    0.4020 n         1 MOL     -0.159899
    163 C49       -12.0560    3.0240    1.2700 c3        1 MOL      0.021595
    164 C50       -10.8220    4.0030    1.4380 c         1 MOL      0.467594
    165 O22       -10.4550    4.4520    2.5650 o         1 MOL     -0.528094
    166 C51       -13.3330    3.7360    0.8790 c3        1 MOL     -0.107609
    167 C52       -13.8350    4.8500    1.7760 c3        1 MOL     -0.127512
    168 C53       -15.2580    5.1980    1.4890 c         1 MOL      0.680666
    169 O23       -16.2080    4.8820    2.2920 o         1 MOL     -0.672140
    170 O24       -15.5060    5.7500    0.3790 o         1 MOL     -0.672140
    171 H80       -12.5360    1.7130   -0.3210 hn        1 MOL      0.168866
    172 H81       -12.2040    2.6420    2.2780 h1        1 MOL      0.083130
    173 H82       -14.1440    3.0190    0.8830 hc        1 MOL      0.040469
    174 H83       -13.3070    4.1550   -0.1280 hc        1 MOL      0.040469
    175 H84       -13.2900    5.7900    1.7490 hc        1 MOL      0.032291
    176 H85       -13.6790    4.4880    2.7920 hc        1 MOL      0.032291
    177 N15        -9.8990    4.0980    0.4760 n         1 MOL     -0.396790
    178 C54       -10.2930    4.2280   -0.9160 c3        1 MOL      0.058352
    179 H86       -11.0820    4.9750   -1.0030 h1        1 MOL      0.025005
    180 H87        -9.4340    4.5380   -1.5110 h1        1 MOL      0.025005
    181 H88       -10.6600    3.2680   -1.2820 h1        1 MOL      0.025005
    182 H89        -9.1170    4.6890    0.6890 hn        1 MOL      0.306712
    183 Ca1         8.7780    3.8970    1.2890 Ca        1 MOL      1.714079
    184 O25         6.5150    4.1270    2.8010 oh        1 MOL     -0.760618
    185 H90         6.1830    4.5180    3.6130 ho        1 MOL      0.387290
    186 H91         5.7330    3.7810    2.3670 ho        1 MOL      0.387290
    187 O26         8.5500    6.1080   -0.4720 oh        1 MOL     -0.760618
    188 H92         8.3410    6.4630   -1.3370 ho        1 MOL      0.387290
    189 H93         8.3550    6.8220    0.1350 ho        1 MOL      0.387290
    190 O27        11.1960    5.1700    0.9370 oh        1 MOL     -0.760618
    191 H94        11.5220    5.3030    0.0490 ho        1 MOL      0.387290
    192 H95        11.2860    6.0290    1.3540 ho        1 MOL      0.387290
    193 O28         8.6430    6.6730    2.2060 oh        1 MOL     -0.760618
    194 H96         7.8670    7.1400    2.5370 ho        1 MOL      0.387290
    195 H97         9.2680    7.3620    1.9800 ho        1 MOL      0.387290
    196 O29         9.5420    4.0720    3.8570 oh        1 MOL     -0.760618
    197 H98        10.1420    4.4240    4.5060 ho        1 MOL      0.387290
    198 H99         9.0000    3.4530    4.3320 ho        1 MOL      0.387290
@<TRIPOS>BOND
     1    1    2 1   
     2    1    4 1   
     3    1    5 1   
     4    1    6 1   
     5    2    3 2   
     6    2    7 1   
     7    7    8 1   
     8    7   15 1   
     9    8    9 1   
    10    8   11 1   
    11    8   16 1   
    12    9   10 2   
    13    9   19 1   
    14   11   12 1   
    15   11   17 1   
    16   11   18 1   
    17   12   13 1   
    18   12   14 1   
    19   19   20 1   
    20   19   28 1   
    21   20   21 1   
    22   20   23 1   
    23   20   29 1   
    24   21   22 2   
    25   21   41 1   
    26   23   24 1   
    27   23   30 1   
    28   23   31 1   
    29   24   25 1   
    30   24   32 1   
    31   24   33 1   
    32   25   26 1   
    33   25   34 1   
    34   25   35 1   
    35   26   27 1   
    36   26   36 1   
    37   26   37 1   
    38   27   38 1   
    39   27   39 1   
    40   27   40 1   
    41   41   42 1   
    42   41   49 1   
    43   42   43 1   
    44   42   45 1   
    45   42   50 1   
    46   43   44 2   
    47   43   53 1   
    48   45   46 1   
    49   45   51 1   
    50   45   52 1   
    51   46   47 1   
    52   46   48 1   
    53   53   54 1   
    54   53   57 1   
    55   54   55 1   
    56   54   58 1   
    57   54   59 1   
    58   55   56 2   
    59   55   60 1   
    60   60   61 1   
    61   60   68 1   
    62   61   62 1   
    63   61   64 1   
    64   61   69 1   
    65   62   63 2   
    66   62   72 1   
    67   64   65 1   
    68   64   70 1   
    69   64   71 1   
    70   65   66 1   
    71   65   67 1   
    72   72   73 1   
    73   72   76 1   
    74   73   74 1   
    75   73   77 1   
    76   73   78 1   
    77   74   75 2   
    78   74   79 1   
    79   79   80 1   
    80   79   86 1   
    81   80   81 1   
    82   80   83 1   
    83   80   87 1   
    84   81   82 2   
    85   81   93 1   
    86   83   84 1   
    87   83   85 1   
    88   83   88 1   
    89   84   90 1   
    90   84   91 1   
    91   84   92 1   
    92   85   89 1   
    93   93   94 1   
    94   93  101 1   
    95   94   95 1   
    96   94   97 1   
    97   94  102 1   
    98   95   96 2   
    99   95  112 1   
   100   97   98 1   
   101   97   99 1   
   102   97  103 1   
   103   98  100 1   
   104   98  104 1   
   105   98  105 1   
   106   99  106 1   
   107   99  107 1   
   108   99  108 1   
   109  100  109 1   
   110  100  110 1   
   111  100  111 1   
   112  112  113 1   
   113  112  119 1   
   114  113  114 1   
   115  113  116 1   
   116  113  120 1   
   117  114  115 2   
   118  114  126 1   
   119  116  117 1   
   120  116  118 1   
   121  116  121 1   
   122  117  123 1   
   123  117  124 1   
   124  117  125 1   
   125  118  122 1   
   126  126  127 1   
   127  126  133 1   
   128  127  128 1   
   129  127  130 1   
   130  127  134 1   
   131  128  129 2   
   132  128  140 1   
   133  130  131 1   
   134  130  132 1   
   135  130  135 1   
   136  131  137 1   
   137  131  138 1   
   138  131  139 1   
   139  132  136 1   
   140  140  141 1   
   141  140  149 1   
   142  141  142 1   
   143  141  144 1   
   144  141  150 1   
   145  142  143 2   
   146  142  162 1   
   147  144  145 1   
   148  144  151 1   
   149  144  152 1   
   150  145  146 1   
   151  145  153 1   
   152  145  154 1   
   153  146  147 1   
   154  146  155 1   
   155  146  156 1   
   156  147  148 1   
   157  147  157 1   
   158  147  158 1   
   159  148  159 1   
   160  148  160 1   
   161  148  161 1   
   162  162  163 1   
   163  162  171 1   
   164  163  164 1   
   165  163  166 1   
   166  163  172 1   
   167  164  165 2   
   168  164  177 1   
   169  166  167 1   
   170  166  173 1   
   171  166  174 1   
   172  167  168 1   
   173  167  175 1   
   174  167  176 1   
   175  168  169 1   
   176  168  170 1   
   177  177  178 1   
   178  177  182 1   
   179  178  179 1   
   180  178  180 1   
   181  178  181 1   
   182  184  185 1   
   183  184  186 1   
   184  187  188 1   
   185  187  189 1   
   186  190  191 1   
   187  190  192 1   
   188  193  194 1   
   189  193  195 1   
   190  196  197 1   
   191  196  198 1   
@<TRIPOS>SUBSTRUCTURE
     1 MOL         1 TEMP              0 ****  ****    0 ROOT
