@<TRIPOS>MOLECULE
MOL
  189   185     1     0     0
SMALL
resp


@<TRIPOS>ATOM
      1 C1          4.4410   -4.4260    2.9140 c3        1 MOL     -0.427560
      2 C2          5.1630   -3.6810    1.7710 c         1 MOL      0.929179
      3 O1          4.5850   -3.4410    0.7320 o         1 MOL     -0.704626
      4 H1          3.3640   -4.2940    2.8100 hc        1 MOL      0.099582
      5 H2          4.6810   -5.4880    2.8650 hc        1 MOL      0.099582
      6 H3          4.7650   -4.0240    3.8730 hc        1 MOL      0.099582
      7 N1          6.4120   -3.2410    2.0170 n         1 MOL     -0.872976
      8 C3          7.1450   -2.1450    1.3590 c3        1 MOL      0.433103
      9 C4          6.2840   -0.8460    1.2530 c         1 MOL      0.185201
     10 O2          5.8280   -0.3430    0.2110 o         1 MOL     -0.310619
     11 C5          7.8230   -2.5400    0.0200 c3        1 MOL     -0.141948
     12 C6          7.1290   -3.5980   -0.8570 c         1 MOL      0.724185
     13 O3          6.2210   -3.1850   -1.6070 o         1 MOL     -0.721952
     14 O4          7.5930   -4.7770   -0.9960 o         1 MOL     -0.721952
     15 H4          6.7770   -3.5770    2.8960 hn        1 MOL      0.349137
     16 H5          8.0030   -1.8910    1.9680 h1        1 MOL      0.004299
     17 H6          8.8100   -2.8880    0.3210 hc        1 MOL      0.004081
     18 H7          8.0330   -1.5860   -0.4560 hc        1 MOL      0.004081
     19 N2          6.0270   -0.2380    2.4190 n         1 MOL     -0.334834
     20 C7          5.3100    1.0490    2.6580 c3        1 MOL      0.083655
     21 C8          6.0020    2.2770    1.9460 c         1 MOL      0.346889
     22 O5          6.7060    3.0570    2.5550 o         1 MOL     -0.548353
     23 C9          3.7460    0.9710    2.3690 c3        1 MOL      0.172459
     24 C10         3.0510    2.1850    2.9490 c3        1 MOL      0.108040
     25 C11         3.0570   -0.3600    2.8670 c3        1 MOL      0.016841
     26 C12         3.0750    2.4420    4.4670 c3        1 MOL     -0.282315
     27 H8          6.2780   -0.7340    3.2640 hn        1 MOL      0.240070
     28 H9          5.3890    1.1780    3.7410 h1        1 MOL      0.007842
     29 H10         3.5760    1.0900    1.2940 hc        1 MOL     -0.194631
     30 H11         1.9750    2.0070    2.8940 hc        1 MOL      0.035008
     31 H12         3.3650    3.0660    2.3910 hc        1 MOL      0.035008
     32 H13         3.5340   -0.7140    3.7790 hc        1 MOL     -0.022138
     33 H14         1.9850   -0.2450    3.0260 hc        1 MOL     -0.022138
     34 H15         3.2910   -1.1190    2.1100 hc        1 MOL     -0.022138
     35 H16         3.7980    3.2530    4.5360 hc        1 MOL      0.041680
     36 H17         2.0850    2.7760    4.7850 hc        1 MOL      0.041680
     37 H18         3.2870    1.5360    5.0480 hc        1 MOL      0.041680
     38 N3          5.8620    2.4100    0.6370 n         1 MOL      0.002056
     39 C13         6.5460    3.4580   -0.1360 c3        1 MOL     -0.018275
     40 C14         5.7970    4.8090   -0.3080 c         1 MOL      0.528735
     41 O6          6.4690    5.8420   -0.2110 o         1 MOL     -0.572562
     42 C15         6.9950    2.8800   -1.4920 c3        1 MOL     -0.110145
     43 C16         8.0830    1.8300   -1.3020 c         1 MOL      0.594786
     44 O7          8.8180    1.9160   -0.2600 o         1 MOL     -0.661846
     45 O8          8.2130    0.9560   -2.2050 o         1 MOL     -0.661846
     46 H19         5.5090    1.6400    0.0870 hn        1 MOL      0.187897
     47 H20         7.4670    3.6740    0.3940 h1        1 MOL      0.074435
     48 H21         7.3180    3.7130   -2.1170 hc        1 MOL      0.018602
     49 H22         6.1360    2.4480   -2.0190 hc        1 MOL      0.018602
     50 N4          4.4900    4.8710   -0.5790 n         1 MOL     -0.539481
     51 C17         3.7240    3.7310   -1.1540 c3        1 MOL      0.086870
     52 C18         2.3330    4.0520   -1.6870 c         1 MOL      0.530183
     53 O9          1.7600    5.0880   -1.2620 o         1 MOL     -0.583578
     54 H23         3.9780    5.7430   -0.6330 hn        1 MOL      0.300257
     55 H24         3.5300    2.9490   -0.4130 h1        1 MOL      0.079585
     56 H25         4.3340    3.3750   -1.9880 h1        1 MOL      0.079585
     57 N5          1.6480    3.2270   -2.4890 n         1 MOL     -0.551608
     58 C19         1.8760    1.7820   -2.6800 c3        1 MOL      0.157827
     59 C20         2.1880    0.9870   -1.3940 c         1 MOL     -0.015949
     60 O10         3.3470    0.6270   -1.1360 o         1 MOL     -0.461591
     61 C21         2.8390    1.5530   -3.8100 c3        1 MOL     -0.203599
     62 C22         2.8130    0.0680   -4.2290 c         1 MOL      0.679339
     63 O11         3.2170   -0.3160   -5.3340 o         1 MOL     -0.671523
     64 O12         2.3730   -0.8130   -3.4030 o         1 MOL     -0.671523
     65 H26         1.0350    3.7590   -3.0880 hn        1 MOL      0.317580
     66 H27         0.9430    1.3710   -3.0630 h1        1 MOL      0.112588
     67 H28         3.8720    1.7950   -3.5540 hc        1 MOL      0.053419
     68 H29         2.6830    2.1950   -4.6690 hc        1 MOL      0.053419
     69 N6          1.1990    0.5430   -0.6410 n         1 MOL     -0.128020
     70 C23        -0.2210    1.0600   -0.6180 c3        1 MOL      0.082687
     71 C24        -0.3810    2.3770    0.0850 c         1 MOL      0.712844
     72 O13         0.3000    2.7490    1.0550 o         1 MOL     -0.586698
     73 H30         1.4780    0.0240    0.1760 hn        1 MOL      0.233718
     74 H31        -0.9060    0.3120   -0.2280 h1        1 MOL      0.014554
     75 H32        -0.5760    1.1530   -1.6490 h1        1 MOL      0.014554
     76 N7         -1.4350    3.0340   -0.3660 n         1 MOL     -0.641885
     77 C25        -1.9520    4.2470    0.2630 c3        1 MOL      0.040890
     78 C26        -2.7010    4.1020    1.5640 c         1 MOL      0.365101
     79 O14        -2.9330    5.1560    2.2050 o         1 MOL     -0.460291
     80 C27        -2.5640    5.2140   -0.7830 c3        1 MOL     -0.005415
     81 C28        -2.2170    6.6940   -0.4740 c3        1 MOL     -0.210472
     82 C29        -2.7080    7.5590   -1.6180 c         1 MOL      0.649442
     83 N8         -1.9300    7.9150   -2.6240 n         1 MOL     -0.773842
     84 O15        -3.8910    7.9670   -1.6300 o         1 MOL     -0.584043
     85 H33        -1.7930    2.6100   -1.2130 hn        1 MOL      0.301903
     86 H34        -1.0570    4.7150    0.6700 h1        1 MOL      0.187735
     87 H35        -3.6410    5.1390   -0.9440 hc        1 MOL      0.027134
     88 H36        -2.1010    5.1000   -1.7610 hc        1 MOL      0.027134
     89 H37        -1.1660    6.8960   -0.2570 hc        1 MOL      0.073828
     90 H38        -2.7220    7.0450    0.4270 hc        1 MOL      0.073828
     91 H39        -0.9700    7.6020   -2.5930 hn        1 MOL      0.363825
     92 H40        -2.2960    8.5330   -3.3300 hn        1 MOL      0.363825
     93 N9         -2.9600    2.8350    2.0530 n         1 MOL     -0.296589
     94 C30        -3.5270    2.4850    3.3780 c3        1 MOL     -0.142756
     95 C31        -4.7470    1.5710    3.3320 c         1 MOL      0.509041
     96 O16        -5.3270    1.2180    4.3720 o         1 MOL     -0.515047
     97 C32        -2.4650    2.0790    4.4830 c3        1 MOL      0.192784
     98 C33        -1.2940    3.1750    4.6660 c3        1 MOL     -0.286937
     99 C34        -1.7640    0.7200    4.1290 c3        1 MOL     -0.286937
    100 H41        -2.6030    2.0070    1.6010 hn        1 MOL      0.218987
    101 H42        -3.9280    3.4140    3.7740 h1        1 MOL      0.127955
    102 H43        -2.9490    1.9970    5.4540 hc        1 MOL      0.006084
    103 H44        -0.8810    3.0490    5.6700 hc        1 MOL      0.080923
    104 H45        -0.4780    3.2470    3.9530 hc        1 MOL      0.080923
    105 H46        -1.7740    4.1530    4.6620 hc        1 MOL      0.080923
    106 H47        -2.4240   -0.1440    4.1650 hc        1 MOL      0.080923
    107 H48        -1.4550    0.9290    3.1060 hc        1 MOL      0.080923
    108 H49        -0.8270    0.5460    4.6500 hc        1 MOL      0.080923
    109 N10        -5.2220    1.4360    2.0990 n         1 MOL     -0.444148
    110 C35        -6.5610    1.0590    1.7150 c3        1 MOL      0.385700
    111 C36        -6.6760   -0.4020    1.3810 c         1 MOL      0.365291
    112 O17        -7.7140   -0.9990    1.7240 o         1 MOL     -0.510638
    113 C37        -6.9530    1.9820    0.5290 c3        1 MOL     -0.502595
    114 C38        -6.8490    3.4190    1.0190 c         1 MOL      0.705008
    115 N11        -6.0800    4.2010    0.2390 n         1 MOL     -0.786511
    116 O18        -7.4560    3.9480    1.9460 o         1 MOL     -0.540823
    117 H50        -4.6240    1.7910    1.3650 hn        1 MOL      0.292414
    118 H51        -7.2520    1.2100    2.5360 h1        1 MOL      0.013378
    119 H52        -8.0260    1.9170    0.3260 hc        1 MOL      0.132626
    120 H53        -6.3450    1.8380   -0.3630 hc        1 MOL      0.132626
    121 H54        -5.6010    3.8290   -0.5640 hn        1 MOL      0.362234
    122 H55        -5.9810    5.1740    0.5040 hn        1 MOL      0.362234
    123 N12        -5.7380   -0.9110    0.5900 n         1 MOL     -0.384358
    124 C39        -5.9340   -2.0890   -0.2320 c3        1 MOL      0.299204
    125 C40        -4.6330   -2.8830   -0.3050 c         1 MOL      0.246363
    126 O19        -3.4900   -2.3750   -0.5040 o         1 MOL     -0.411135
    127 C41        -6.2150   -1.5980   -1.7100 c3        1 MOL     -0.006403
    128 C42        -7.4890   -0.7260   -1.9680 ca        1 MOL      0.072383
    129 C43        -8.7070   -1.1130   -1.4440 ca        1 MOL     -0.146023
    130 C44        -7.3850    0.4270   -2.8280 ca        1 MOL     -0.146023
    131 C45        -9.8740   -0.4500   -1.6290 ca        1 MOL     -0.273935
    132 C46        -8.5490    1.0860   -3.1590 ca        1 MOL     -0.273935
    133 C47        -9.8120    0.6530   -2.5750 ca        1 MOL      0.297621
    134 O20       -10.8660    1.3780   -2.8760 oh        1 MOL     -0.455036
    135 H56        -4.9560   -0.2880    0.4470 hn        1 MOL      0.174692
    136 H57        -6.7520   -2.6800    0.1800 h1        1 MOL      0.014167
    137 H58        -6.4060   -2.4320   -2.3870 hc        1 MOL      0.039718
    138 H59        -5.3480   -1.1110   -2.1620 hc        1 MOL      0.039718
    139 H60        -8.6800   -2.0020   -0.8370 ha        1 MOL      0.125958
    140 H61        -6.4770    0.7380   -3.3320 ha        1 MOL      0.125958
    141 H62       -10.7820   -0.7600   -1.1250 ha        1 MOL      0.155953
    142 H63        -8.5650    1.8170   -3.9540 ha        1 MOL      0.155953
    143 H64       -10.6760    2.0580   -3.5300 ho        1 MOL      0.343362
    144 N13        -4.8230   -4.2180   -0.2000 n         1 MOL     -0.511841
    145 C48        -3.9160   -5.2980   -0.4310 c3        1 MOL      0.021032
    146 C49        -2.7110   -5.4850    0.5280 c         1 MOL      0.637585
    147 O21        -2.2760   -6.6130    0.6990 o         1 MOL     -0.567812
    148 C50        -3.4170   -5.1500   -1.8460 c3        1 MOL     -0.009904
    149 C51        -4.5440   -5.0160   -2.8900 c3        1 MOL     -0.317355
    150 C52        -3.9360   -4.9720   -4.3280 c         1 MOL      0.730388
    151 O22        -3.6590   -6.0320   -4.9600 o         1 MOL     -0.728010
    152 O23        -3.9020   -3.8930   -4.9790 o         1 MOL     -0.728010
    153 H65        -5.7870   -4.4750   -0.0600 hn        1 MOL      0.321219
    154 H66        -4.5450   -6.1830   -0.3740 h1        1 MOL      0.066266
    155 H67        -2.8170   -6.0400   -2.0510 hc        1 MOL      0.070273
    156 H68        -2.8040   -4.2590   -1.9300 hc        1 MOL      0.070273
    157 H69        -5.1980   -4.1520   -2.8070 hc        1 MOL      0.046790
    158 H70        -5.2500   -5.8380   -2.7580 hc        1 MOL      0.046790
    159 N14        -2.1630   -4.4220    1.1830 n         1 MOL     -0.661411
    160 C53        -0.9210   -4.4860    2.0280 c3        1 MOL     -0.002876
    161 C54        -1.1700   -5.2420    3.3830 c         1 MOL      0.453543
    162 O24        -0.2430   -5.3400    4.1690 o         1 MOL     -0.526632
    163 C55        -0.3410   -3.0620    2.2540 c3        1 MOL      0.026073
    164 C56        -0.1690   -2.1790    1.0090 c3        1 MOL      0.189758
    165 C57         0.9120   -2.7130    0.0880 c         1 MOL      0.572733
    166 O25         2.0060   -2.1170    0.0720 o         1 MOL     -0.623437
    167 O26         0.7460   -3.6450   -0.7250 o         1 MOL     -0.623437
    168 H71        -2.6350   -3.5460    1.0260 hn        1 MOL      0.355920
    169 H72        -0.1750   -4.9940    1.4180 h1        1 MOL      0.162039
    170 H73         0.5620   -3.2000    2.8480 hc        1 MOL     -0.013198
    171 H74        -1.0670   -2.5510    2.8900 hc        1 MOL     -0.013198
    172 H75         0.0110   -1.1490    1.3300 hc        1 MOL     -0.075871
    173 H76        -1.1280   -2.1150    0.4760 hc        1 MOL     -0.075871
    174 N15        -2.3190   -5.8980    3.5630 n         1 MOL     -0.214452
    175 C58        -2.8260   -6.6690    4.7640 c3        1 MOL     -0.190366
    176 H77        -3.9140   -6.6170    4.7960 h1        1 MOL      0.088507
    177 H78        -2.5150   -7.7110    4.6850 h1        1 MOL      0.088507
    178 H79        -2.4150   -6.2340    5.6750 h1        1 MOL      0.088507
    179 H80        -2.9720   -5.9330    2.7930 hn        1 MOL      0.212939
    180 Ca1         4.0510   -1.8770   -1.5900 Ca        1 MOL      1.717074
    181 O27         5.8240   -0.5500   -3.0890 oh        1 MOL     -0.830724
    182 O28         3.0020   -4.3830   -1.7080 oh        1 MOL     -0.830724
    183 H81         6.3440   -0.9440   -3.7900 ho        1 MOL      0.394543
    184 H82         3.5270   -4.9130   -1.1080 ho        1 MOL      0.394543
    185 H83         6.3350    0.2180   -2.8050 ho        1 MOL      0.394543
    186 H84         2.1350   -4.3480   -1.2950 ho        1 MOL      0.394543
    187 O29         3.9880   -2.8650   -4.1770 oh        1 MOL     -0.830724
    188 H85         3.4110   -3.5150   -4.5810 ho        1 MOL      0.394543
    189 H86         3.7320   -2.0330   -4.5760 ho        1 MOL      0.394543
@<TRIPOS>BOND
     1    1    2 1   
     2    1    4 1   
     3    1    5 1   
     4    1    6 1   
     5    2    3 2   
     6    2    7 1   
     7    7    8 1   
     8    7   15 1   
     9    8    9 1   
    10    8   11 1   
    11    8   16 1   
    12    9   10 2   
    13    9   19 1   
    14   11   12 1   
    15   11   17 1   
    16   11   18 1   
    17   12   13 1   
    18   12   14 1   
    19   19   20 1   
    20   19   27 1   
    21   20   21 1   
    22   20   23 1   
    23   20   28 1   
    24   21   22 2   
    25   21   38 1   
    26   23   24 1   
    27   23   25 1   
    28   23   29 1   
    29   24   26 1   
    30   24   30 1   
    31   24   31 1   
    32   25   32 1   
    33   25   33 1   
    34   25   34 1   
    35   26   35 1   
    36   26   36 1   
    37   26   37 1   
    38   38   39 1   
    39   38   46 1   
    40   39   40 1   
    41   39   42 1   
    42   39   47 1   
    43   40   41 2   
    44   40   50 1   
    45   42   43 1   
    46   42   48 1   
    47   42   49 1   
    48   43   44 1   
    49   43   45 1   
    50   50   51 1   
    51   50   54 1   
    52   51   52 1   
    53   51   55 1   
    54   51   56 1   
    55   52   53 2   
    56   52   57 1   
    57   57   58 1   
    58   57   65 1   
    59   58   59 1   
    60   58   61 1   
    61   58   66 1   
    62   59   60 2   
    63   59   69 1   
    64   61   62 1   
    65   61   67 1   
    66   61   68 1   
    67   62   63 1   
    68   62   64 1   
    69   69   70 1   
    70   69   73 1   
    71   70   71 1   
    72   70   74 1   
    73   70   75 1   
    74   71   72 2   
    75   71   76 1   
    76   76   77 1   
    77   76   85 1   
    78   77   78 1   
    79   77   80 1   
    80   77   86 1   
    81   78   79 2   
    82   78   93 1   
    83   80   81 1   
    84   80   87 1   
    85   80   88 1   
    86   81   82 1   
    87   81   89 1   
    88   81   90 1   
    89   82   83 1   
    90   82   84 2   
    91   83   91 1   
    92   83   92 1   
    93   93   94 1   
    94   93  100 1   
    95   94   95 1   
    96   94   97 1   
    97   94  101 1   
    98   95   96 2   
    99   95  109 1   
   100   97   98 1   
   101   97   99 1   
   102   97  102 1   
   103   98  103 1   
   104   98  104 1   
   105   98  105 1   
   106   99  106 1   
   107   99  107 1   
   108   99  108 1   
   109  109  110 1   
   110  109  117 1   
   111  110  111 1   
   112  110  113 1   
   113  110  118 1   
   114  111  112 2   
   115  111  123 1   
   116  113  114 1   
   117  113  119 1   
   118  113  120 1   
   119  114  115 1   
   120  114  116 2   
   121  115  121 1   
   122  115  122 1   
   123  123  124 1   
   124  123  135 1   
   125  124  125 1   
   126  124  127 1   
   127  124  136 1   
   128  125  126 2   
   129  125  144 1   
   130  127  128 1   
   131  127  137 1   
   132  127  138 1   
   133  128  129 ar  
   134  128  130 ar  
   135  129  131 ar  
   136  129  139 1   
   137  130  132 ar  
   138  130  140 1   
   139  131  133 ar  
   140  131  141 1   
   141  132  133 ar  
   142  132  142 1   
   143  133  134 1   
   144  134  143 1   
   145  144  145 1   
   146  144  153 1   
   147  145  146 1   
   148  145  148 1   
   149  145  154 1   
   150  146  147 2   
   151  146  159 1   
   152  148  149 1   
   153  148  155 1   
   154  148  156 1   
   155  149  150 1   
   156  149  157 1   
   157  149  158 1   
   158  150  151 1   
   159  150  152 1   
   160  159  160 1   
   161  159  168 1   
   162  160  161 1   
   163  160  163 1   
   164  160  169 1   
   165  161  162 2   
   166  161  174 1   
   167  163  164 1   
   168  163  170 1   
   169  163  171 1   
   170  164  165 1   
   171  164  172 1   
   172  164  173 1   
   173  165  166 1   
   174  165  167 1   
   175  174  175 1   
   176  174  179 1   
   177  175  176 1   
   178  175  177 1   
   179  175  178 1   
   180  181  183 1   
   181  181  185 1   
   182  182  184 1   
   183  182  186 1   
   184  187  188 1   
   185  187  189 1   
@<TRIPOS>SUBSTRUCTURE
     1 MOL         1 TEMP              0 ****  ****    0 ROOT
