@<TRIPOS>MOLECULE
MOL
  181   177     1     0     0
SMALL
resp


@<TRIPOS>ATOM
      1 C1          1.1170    6.6850   -2.9470 c3        1 MOL     -0.362392
      2 C2          2.4850    6.5000   -2.3140 c         1 MOL      0.685618
      3 O1          2.9270    7.2860   -1.4570 o         1 MOL     -0.587539
      4 H1          0.3900    6.0590   -2.4280 hc        1 MOL      0.088469
      5 H2          0.8170    7.7300   -2.8680 hc        1 MOL      0.088469
      6 H3          1.1600    6.3960   -3.9970 hc        1 MOL      0.088469
      7 N1          3.1870    5.4770   -2.8190 n         1 MOL     -0.556603
      8 C3          4.4420    5.0480   -2.1450 c3        1 MOL      0.123782
      9 C4          4.1910    4.3960   -0.7510 c         1 MOL      0.625850
     10 O2          3.6680    3.2590   -0.6950 o         1 MOL     -0.558449
     11 C5          5.2110    4.0400   -3.0900 c3        1 MOL     -0.283993
     12 C6          6.6330    3.6810   -2.7150 c         1 MOL      0.772146
     13 O3          7.0420    2.5020   -2.6210 o         1 MOL     -0.751294
     14 O4          7.3830    4.6650   -2.4980 o         1 MOL     -0.751294
     15 H4          2.6660    4.9070   -3.4680 hn        1 MOL      0.309580
     16 H5          5.0270    5.9580   -2.0190 h1        1 MOL      0.064061
     17 H6          5.2260    4.4910   -4.0840 hc        1 MOL      0.041418
     18 H7          4.5910    3.1520   -3.1970 hc        1 MOL      0.041418
     19 N2          4.6030    5.0080    0.3770 n         1 MOL     -0.664856
     20 C7          4.3710    4.4820    1.7100 c3        1 MOL      0.601475
     21 C8          2.9390    3.9760    1.9530 c         1 MOL      0.355781
     22 O5          1.9460    4.4480    1.4200 o         1 MOL     -0.504565
     23 C9          4.6530    5.6570    2.7010 c3        1 MOL     -0.405274
     24 H8          5.0490    5.9070    0.3220 hn        1 MOL      0.328623
     25 H9          5.0740    3.6770    1.9120 h1        1 MOL     -0.023264
     26 H10         5.7280    5.8570    2.7080 hc        1 MOL      0.096446
     27 H11         4.0230    6.5160    2.4690 hc        1 MOL      0.096446
     28 H12         4.4290    5.3260    3.7230 hc        1 MOL      0.096446
     29 N3          2.7110    3.0220    2.8990 n         1 MOL     -0.542722
     30 C10         3.6920    2.2130    3.5650 c3        1 MOL      0.132877
     31 C11         4.2230    1.0500    2.6590 c         1 MOL      0.313602
     32 O6          3.6660    0.8240    1.5770 o         1 MOL     -0.285855
     33 C12         3.1360    1.7240    4.8540 c3        1 MOL     -0.297034
     34 C13         1.8810    0.9120    4.7020 c         1 MOL      0.622779
     35 O7          1.4750    0.5120    3.5820 o         1 MOL     -0.660360
     36 O8          1.3010    0.4940    5.7510 o         1 MOL     -0.660360
     37 H13         1.7340    2.8050    3.0030 hn        1 MOL      0.397307
     38 H14         4.5930    2.8020    3.7370 h1        1 MOL      0.002717
     39 H15         2.9570    2.5570    5.5460 hc        1 MOL      0.088160
     40 H16         3.8490    1.1420    5.4260 hc        1 MOL      0.088160
     41 N4          5.2870    0.3280    3.1340 n         1 MOL     -0.414144
     42 C14         5.9930   -0.6420    2.3190 c3        1 MOL     -0.009080
     43 C15         6.5400    0.0020    1.0170 c         1 MOL      0.479997
     44 O9          6.8240    1.2030    0.9590 o         1 MOL     -0.454317
     45 H17         5.6240    0.4960    4.0660 hn        1 MOL      0.294353
     46 H18         5.2510   -1.3860    2.0190 h1        1 MOL      0.069249
     47 H19         6.7880   -1.0780    2.9290 h1        1 MOL      0.069249
     48 N5          6.9280   -0.7750   -0.0130 n         1 MOL     -0.484687
     49 C16         6.9320   -2.2830   -0.0890 c3        1 MOL     -0.007962
     50 C17         6.1340   -2.9970   -1.1700 c         1 MOL      0.533905
     51 O10         5.7570   -4.1580   -0.9520 o         1 MOL     -0.502179
     52 C18         8.4050   -2.6960   -0.0540 c3        1 MOL     -0.435408
     53 C19         8.7360   -4.1860   -0.2280 c         1 MOL      0.723149
     54 N6          8.8520   -4.9510    0.8400 n         1 MOL     -0.842864
     55 O11         8.8570   -4.6800   -1.3030 o         1 MOL     -0.545780
     56 H20         7.3160   -0.3270   -0.8340 hn        1 MOL      0.357681
     57 H21         6.4310   -2.7130    0.7800 h1        1 MOL      0.080608
     58 H22         8.7460   -2.3860    0.9360 hc        1 MOL      0.145759
     59 H23         8.8030   -2.1700   -0.9150 hc        1 MOL      0.145759
     60 H24         8.6280   -4.6110    1.7650 hn        1 MOL      0.374790
     61 H25         8.9790   -5.9470    0.6600 hn        1 MOL      0.374790
     62 N7          5.6750   -2.3050   -2.1800 n         1 MOL     -0.183189
     63 C20         5.0490   -2.9680   -3.3190 c3        1 MOL     -0.394840
     64 C21         3.7020   -3.7540   -3.2330 c         1 MOL      0.683754
     65 O12         3.2280   -4.2430   -4.2420 o         1 MOL     -0.557757
     66 H26         5.7630   -1.3180   -2.2980 hn        1 MOL      0.246612
     67 H27         5.7330   -3.6510   -3.8070 h1        1 MOL      0.159356
     68 H28         4.7820   -2.1590   -3.9980 h1        1 MOL      0.159356
     69 N8          3.0300   -3.6380   -2.0390 n         1 MOL     -0.505014
     70 C22         1.8430   -4.3610   -1.5120 c3        1 MOL     -0.068482
     71 C23         0.6020   -3.4650   -1.2000 c         1 MOL      0.676849
     72 O13         0.7470   -2.2910   -0.7490 o         1 MOL     -0.586645
     73 C24         2.1870   -5.2810   -0.3010 c3        1 MOL      0.413124
     74 C25         2.6840   -6.5680   -0.9060 c3        1 MOL     -0.638884
     75 O14         3.1380   -4.7440    0.5320 oh        1 MOL     -0.568938
     76 H29         3.5650   -3.0830   -1.3900 hn        1 MOL      0.263069
     77 H30         1.4980   -5.0160   -2.3090 h1        1 MOL      0.096091
     78 H31         1.2180   -5.3890    0.1820 h1        1 MOL      0.010409
     79 H32         3.2190   -5.3700    1.2580 ho        1 MOL      0.400731
     80 H33         3.4770   -6.2730   -1.5820 hc        1 MOL      0.169511
     81 H34         3.0530   -7.2520   -0.1360 hc        1 MOL      0.169511
     82 H35         1.8680   -7.0150   -1.4680 hc        1 MOL      0.169511
     83 N9         -0.6220   -3.9740   -1.3750 n         1 MOL     -0.508456
     84 C26        -1.9190   -3.2950   -1.1420 c3        1 MOL     -0.065293
     85 C27        -2.4210   -3.5930    0.2670 c         1 MOL      0.548530
     86 O15        -2.4110   -4.7710    0.7370 o         1 MOL     -0.574054
     87 C28        -2.8880   -3.5940   -2.2670 c3        1 MOL      0.098506
     88 C29        -4.2250   -2.8290   -1.9950 c3        1 MOL      0.365726
     89 C30        -2.3690   -3.2120   -3.6970 c3        1 MOL     -0.251189
     90 C31        -5.3340   -3.2850   -3.0400 c3        1 MOL     -0.248915
     91 H36        -0.7820   -4.8990   -1.7480 hn        1 MOL      0.297511
     92 H37        -1.7940   -2.2170   -1.1810 h1        1 MOL      0.088727
     93 H38        -3.0630   -4.6630   -2.2290 hc        1 MOL     -0.002621
     94 H39        -4.2630   -1.7380   -1.9850 hc        1 MOL     -0.114436
     95 H40        -4.5630   -3.1850   -1.0240 hc        1 MOL     -0.114436
     96 H41        -3.0280   -3.4750   -4.5200 hc        1 MOL      0.059031
     97 H42        -2.1660   -2.1440   -3.8140 hc        1 MOL      0.059031
     98 H43        -1.4810   -3.8210   -3.9040 hc        1 MOL      0.059031
     99 H44        -4.9820   -2.9150   -4.0000 hc        1 MOL      0.032773
    100 H45        -5.5370   -4.3540   -3.0220 hc        1 MOL      0.032773
    101 H46        -6.2840   -2.8150   -2.7620 hc        1 MOL      0.032773
    102 N10        -2.9550   -2.5730    0.9830 n         1 MOL     -0.204473
    103 C32        -3.5840   -2.6340    2.3490 c3        1 MOL      0.122686
    104 C33        -4.9400   -1.8490    2.4010 c         1 MOL      0.396548
    105 O16        -5.7510   -2.2420    3.2080 o         1 MOL     -0.551353
    106 C34        -2.6370   -2.1660    3.4130 c3        1 MOL      0.062080
    107 C35        -1.1640   -2.5940    3.2880 c         1 MOL      0.627590
    108 O17        -0.7870   -3.5040    4.0190 o         1 MOL     -0.683567
    109 O18        -0.3560   -2.0800    2.4900 o         1 MOL     -0.683567
    110 H47        -3.0160   -1.6770    0.5350 hn        1 MOL     -0.016183
    111 H48        -3.7730   -3.6880    2.5470 h1        1 MOL      0.043914
    112 H49        -3.0640   -2.4410    4.3720 hc        1 MOL     -0.039101
    113 H50        -2.6320   -1.0770    3.3530 hc        1 MOL     -0.039101
    114 N11        -5.2880   -0.9980    1.4610 n         1 MOL     -0.357219
    115 C36        -6.5600   -0.2880    1.3240 c3        1 MOL      0.343554
    116 C37        -6.4840    1.0760    0.6220 c         1 MOL      0.164644
    117 O19        -7.2060    1.2450   -0.4150 o         1 MOL     -0.465353
    118 C38        -7.5050   -1.3120    0.6450 c3        1 MOL     -0.370485
    119 C39        -8.9970   -1.0840    0.4910 ca        1 MOL      0.196416
    120 C40        -9.7720   -0.1280    1.1470 ca        1 MOL     -0.165043
    121 C41        -9.6920   -2.0530   -0.2860 ca        1 MOL     -0.165043
    122 C42       -11.2140   -0.0990    1.0450 ca        1 MOL     -0.141161
    123 C43       -11.1080   -2.0940   -0.2670 ca        1 MOL     -0.141161
    124 C44       -11.8830   -1.1100    0.3880 ca        1 MOL     -0.118426
    125 H51        -4.5750   -0.7780    0.7740 hn        1 MOL      0.239700
    126 H52        -6.9720   -0.0830    2.3090 h1        1 MOL      0.024179
    127 H53        -7.5110   -2.2980    1.1040 hc        1 MOL      0.139810
    128 H54        -7.1180   -1.4320   -0.3710 hc        1 MOL      0.139810
    129 H55        -9.2660    0.6190    1.7240 ha        1 MOL      0.108120
    130 H56        -9.1330   -2.8660   -0.7140 ha        1 MOL      0.108120
    131 H57       -11.7880    0.7010    1.4930 ha        1 MOL      0.106252
    132 H58       -11.6420   -2.8260   -0.8550 ha        1 MOL      0.106252
    133 H59       -12.9660   -1.1550    0.3500 ha        1 MOL      0.097825
    134 N12        -5.7240    2.0200    1.1600 n         1 MOL      0.110542
    135 C45        -5.6360    3.3700    0.5690 c3        1 MOL     -0.050677
    136 C46        -5.1800    3.5270   -0.9290 c         1 MOL      0.260112
    137 O20        -5.5470    4.5020   -1.6210 o         1 MOL     -0.444604
    138 C47        -4.8170    4.2800    1.5670 c3        1 MOL     -0.100734
    139 C48        -4.9940    3.4620    2.8330 c3        1 MOL      0.042890
    140 C49        -5.1070    1.9620    2.4560 c3        1 MOL     -0.068201
    141 H60        -6.6730    3.7140    0.6270 h1        1 MOL      0.073245
    142 H61        -3.7500    4.1820    1.3570 hc        1 MOL      0.065716
    143 H62        -5.0750    5.3430    1.6360 hc        1 MOL      0.065716
    144 H63        -4.3000    3.6880    3.6370 hc        1 MOL      0.006763
    145 H64        -5.9650    3.7360    3.2330 hc        1 MOL      0.006763
    146 H65        -4.1380    1.4580    2.3880 h1        1 MOL      0.034299
    147 H66        -5.7500    1.5070    3.2050 h1        1 MOL      0.034299
    148 N13        -4.4160    2.4670   -1.4040 n         1 MOL      0.046624
    149 C50        -4.0710    2.2600   -2.7990 c3        1 MOL     -0.384774
    150 C51        -5.3020    2.0510   -3.5170 c         1 MOL      0.495548
    151 O21        -5.5890    2.8380   -4.3770 o         1 MOL     -0.539307
    152 C52        -3.1080    1.0760   -2.9910 c3        1 MOL      0.452928
    153 C53        -1.8210    1.0510   -2.1300 c3        1 MOL     -0.574618
    154 C54        -2.0870    0.3560   -0.7860 c         1 MOL      0.822797
    155 O22        -1.1460    0.0720   -0.0960 o         1 MOL     -0.600020
    156 O23        -3.2930    0.1210   -0.3430 o         1 MOL     -0.600020
    157 H67        -4.0090    1.8160   -0.7540 hn        1 MOL      0.045450
    158 H68        -3.4630    3.0580   -3.2310 h1        1 MOL      0.136263
    159 H69        -2.7430    1.1550   -4.0190 hc        1 MOL     -0.078704
    160 H70        -3.5830    0.0930   -3.0060 hc        1 MOL     -0.078704
    161 H71        -1.5030    2.0420   -1.7960 hc        1 MOL      0.135597
    162 H72        -1.1000    0.4300   -2.6590 hc        1 MOL      0.135597
    163 N14        -6.1540    1.1320   -3.1260 n         1 MOL     -0.093135
    164 C55        -7.4260    0.9960   -3.7850 c3        1 MOL     -0.368843
    165 H73        -8.0830    0.3720   -3.1790 h1        1 MOL      0.119969
    166 H74        -7.8770    1.9800   -3.9140 h1        1 MOL      0.119969
    167 H75        -7.2830    0.5310   -4.7600 h1        1 MOL      0.119969
    168 H76        -5.9530    0.5100   -2.3590 hn        1 MOL      0.210057
    169 Ca1         1.0660   -0.2650    1.1910 Ca        1 MOL      1.634440
    170 O24         1.1450    2.0290   -0.0090 oh        1 MOL     -0.853237
    171 H77         1.8450    2.6570   -0.1990 ho        1 MOL      0.402151
    172 H78         0.4090    2.3300   -0.5370 ho        1 MOL      0.402151
    173 O25         2.7820   -0.4990   -1.0130 oh        1 MOL     -0.853237
    174 H79         2.3930   -0.9180   -1.7820 ho        1 MOL      0.402151
    175 H80         3.5080    0.0130   -1.3720 ho        1 MOL      0.402151
    176 O26         2.8730   -2.1570    1.4530 oh        1 MOL     -0.853237
    177 H81         3.7420   -1.9120    1.7480 ho        1 MOL      0.402151
    178 H82         2.9790   -2.9990    1.0210 ho        1 MOL      0.402151
    179 O27        -0.9070    1.4240    2.1100 oh        1 MOL     -0.853237
    180 H83        -1.0790    1.6070    3.0370 ho        1 MOL      0.402151
    181 H84        -1.6630    0.9140    1.8290 ho        1 MOL      0.402151
@<TRIPOS>BOND
     1    1    2 1   
     2    1    4 1   
     3    1    5 1   
     4    1    6 1   
     5    2    3 2   
     6    2    7 1   
     7    7    8 1   
     8    7   15 1   
     9    8    9 1   
    10    8   11 1   
    11    8   16 1   
    12    9   10 2   
    13    9   19 1   
    14   11   12 1   
    15   11   17 1   
    16   11   18 1   
    17   12   13 1   
    18   12   14 1   
    19   19   20 1   
    20   19   24 1   
    21   20   21 1   
    22   20   23 1   
    23   20   25 1   
    24   21   22 2   
    25   21   29 1   
    26   23   26 1   
    27   23   27 1   
    28   23   28 1   
    29   29   30 1   
    30   29   37 1   
    31   30   31 1   
    32   30   33 1   
    33   30   38 1   
    34   31   32 2   
    35   31   41 1   
    36   33   34 1   
    37   33   39 1   
    38   33   40 1   
    39   34   35 1   
    40   34   36 1   
    41   41   42 1   
    42   41   45 1   
    43   42   43 1   
    44   42   46 1   
    45   42   47 1   
    46   43   44 2   
    47   43   48 1   
    48   48   49 1   
    49   48   56 1   
    50   49   50 1   
    51   49   52 1   
    52   49   57 1   
    53   50   51 2   
    54   50   62 1   
    55   52   53 1   
    56   52   58 1   
    57   52   59 1   
    58   53   54 1   
    59   53   55 2   
    60   54   60 1   
    61   54   61 1   
    62   62   63 1   
    63   62   66 1   
    64   63   64 1   
    65   63   67 1   
    66   63   68 1   
    67   64   65 2   
    68   64   69 1   
    69   69   70 1   
    70   69   76 1   
    71   70   71 1   
    72   70   73 1   
    73   70   77 1   
    74   71   72 2   
    75   71   83 1   
    76   73   74 1   
    77   73   75 1   
    78   73   78 1   
    79   74   80 1   
    80   74   81 1   
    81   74   82 1   
    82   75   79 1   
    83   83   84 1   
    84   83   91 1   
    85   84   85 1   
    86   84   87 1   
    87   84   92 1   
    88   85   86 2   
    89   85  102 1   
    90   87   88 1   
    91   87   89 1   
    92   87   93 1   
    93   88   90 1   
    94   88   94 1   
    95   88   95 1   
    96   89   96 1   
    97   89   97 1   
    98   89   98 1   
    99   90   99 1   
   100   90  100 1   
   101   90  101 1   
   102  102  103 1   
   103  102  110 1   
   104  103  104 1   
   105  103  106 1   
   106  103  111 1   
   107  104  105 2   
   108  104  114 1   
   109  106  107 1   
   110  106  112 1   
   111  106  113 1   
   112  107  108 1   
   113  107  109 1   
   114  114  115 1   
   115  114  125 1   
   116  115  116 1   
   117  115  118 1   
   118  115  126 1   
   119  116  117 2   
   120  116  134 1   
   121  118  119 1   
   122  118  127 1   
   123  118  128 1   
   124  119  120 ar  
   125  119  121 ar  
   126  120  122 ar  
   127  120  129 1   
   128  121  123 ar  
   129  121  130 1   
   130  122  124 ar  
   131  122  131 1   
   132  123  124 ar  
   133  123  132 1   
   134  124  133 1   
   135  134  135 1   
   136  134  140 1   
   137  135  136 1   
   138  135  138 1   
   139  135  141 1   
   140  136  137 2   
   141  136  148 1   
   142  138  139 1   
   143  138  142 1   
   144  138  143 1   
   145  139  140 1   
   146  139  144 1   
   147  139  145 1   
   148  140  146 1   
   149  140  147 1   
   150  148  149 1   
   151  148  157 1   
   152  149  150 1   
   153  149  152 1   
   154  149  158 1   
   155  150  151 2   
   156  150  163 1   
   157  152  153 1   
   158  152  159 1   
   159  152  160 1   
   160  153  154 1   
   161  153  161 1   
   162  153  162 1   
   163  154  155 1   
   164  154  156 1   
   165  163  164 1   
   166  163  168 1   
   167  164  165 1   
   168  164  166 1   
   169  164  167 1   
   170  170  171 1   
   171  170  172 1   
   172  173  174 1   
   173  173  175 1   
   174  176  177 1   
   175  176  178 1   
   176  179  180 1   
   177  179  181 1   
@<TRIPOS>SUBSTRUCTURE
     1 MOL         1 TEMP              0 ****  ****    0 ROOT
