@<TRIPOS>MOLECULE
MOL
  192   187     1     0     0
SMALL
resp


@<TRIPOS>ATOM
      1 C1         -8.5100   -4.6680    0.1510 c3        1 MOL     -0.363758
      2 C2         -7.2230   -3.9710   -0.4580 c         1 MOL      0.691214
      3 O1         -6.7120   -4.2560   -1.4960 o         1 MOL     -0.600216
      4 H1         -8.2080   -5.3690    0.9290 hc        1 MOL      0.093177
      5 H2         -9.1660   -3.9100    0.5800 hc        1 MOL      0.093177
      6 H3         -9.0390   -5.2060   -0.6350 hc        1 MOL      0.093177
      7 N1         -6.5600   -3.0750    0.2570 n         1 MOL     -0.543599
      8 C3         -5.3140   -2.3610   -0.0910 c3        1 MOL      0.102944
      9 C4         -4.0190   -3.1030    0.4360 c         1 MOL      0.436922
     10 O2         -2.9180   -2.7710   -0.0870 o         1 MOL     -0.512334
     11 C5         -5.3370   -0.9370    0.4740 c3        1 MOL     -0.391235
     12 C6         -5.7900   -0.8490    1.9080 c         1 MOL      0.756300
     13 O3         -4.9310   -0.3260    2.7070 o         1 MOL     -0.745711
     14 O4         -6.8740   -1.2910    2.3330 o         1 MOL     -0.745711
     15 H4         -6.9540   -2.7740    1.1290 hn        1 MOL      0.299346
     16 H5         -5.2150   -2.3290   -1.1780 h1        1 MOL      0.152553
     17 H6         -6.0670   -0.4440   -0.1600 hc        1 MOL      0.125202
     18 H7         -4.4360   -0.3590    0.2800 hc        1 MOL      0.125202
     19 N2         -4.1240   -4.1010    1.3360 n         1 MOL     -0.426860
     20 C7         -2.9570   -4.7910    1.9010 c3        1 MOL      0.116912
     21 C8         -2.4020   -5.7550    0.8240 c         1 MOL      0.490969
     22 O5         -3.1900   -6.5140    0.3280 o         1 MOL     -0.544812
     23 C9         -3.3450   -5.4750    3.1660 c3        1 MOL     -0.107231
     24 C10        -3.8030   -4.5640    4.3440 c3        1 MOL     -0.005683
     25 C11        -2.6280   -4.1330    5.2010 c3        1 MOL     -0.053814
     26 C12        -3.1290   -3.5120    6.4950 c3        1 MOL      0.071691
     27 N3         -3.7490   -2.2030    6.2890 n4        1 MOL     -0.498156
     28 H8         -5.0360   -4.3080    1.7220 hn        1 MOL      0.278691
     29 H9         -2.1350   -4.0930    2.0990 h1        1 MOL      0.097740
     30 H10        -2.5470   -6.0710    3.6120 hc        1 MOL      0.070237
     31 H11        -4.1390   -6.2050    3.0630 hc        1 MOL      0.070237
     32 H12        -4.5000   -5.1720    4.9110 hc        1 MOL      0.012881
     33 H13        -4.4060   -3.7000    4.0790 hc        1 MOL      0.012881
     34 H14        -1.9070   -3.4660    4.7260 hc        1 MOL      0.074241
     35 H15        -2.0500   -5.0420    5.3910 hc        1 MOL      0.074241
     36 H16        -2.2970   -3.4790    7.1910 hx        1 MOL      0.057210
     37 H17        -3.8040   -4.2660    6.9100 hx        1 MOL      0.057210
     38 H18        -4.6750   -2.3820    5.9440 hn        1 MOL      0.369526
     39 H19        -3.7710   -1.7380    7.1810 hn        1 MOL      0.369526
     40 H20        -3.1800   -1.6570    5.6580 hn        1 MOL      0.369526
     41 N4         -1.1180   -5.7780    0.3830 n         1 MOL     -0.507493
     42 C13         0.1630   -5.0670    0.7240 c3        1 MOL      0.084877
     43 C14         0.6320   -5.1280    2.1830 c         1 MOL      0.651463
     44 O6         -0.1490   -5.0560    3.1260 o         1 MOL     -0.624924
     45 C15         0.2430   -3.6150    0.1580 c3        1 MOL     -0.418099
     46 C16        -0.0780   -3.5020   -1.2980 c         1 MOL      0.759521
     47 O7         -0.3200   -2.3730   -1.8470 o         1 MOL     -0.703271
     48 O8          0.0890   -4.4990   -2.0310 o         1 MOL     -0.703271
     49 H21        -1.0570   -6.4830   -0.3420 hn        1 MOL      0.310759
     50 H22         0.9600   -5.6640    0.2970 h1        1 MOL      0.061279
     51 H23         1.1830   -3.0750    0.2870 hc        1 MOL      0.129290
     52 H24        -0.4670   -3.0210    0.7380 hc        1 MOL      0.129290
     53 N5          1.9480   -5.0250    2.4470 n         1 MOL     -0.553785
     54 C17         3.1320   -5.0010    1.5410 c3        1 MOL      0.007440
     55 C18         4.4390   -4.5940    2.2430 c         1 MOL      0.690625
     56 O9          4.4520   -4.6280    3.4830 o         1 MOL     -0.577010
     57 H25         2.1490   -4.7890    3.4090 hn        1 MOL      0.313038
     58 H26         2.8890   -4.3930    0.6730 h1        1 MOL      0.090492
     59 H27         3.2740   -6.0120    1.1570 h1        1 MOL      0.090492
     60 N6          5.4810   -4.2780    1.5200 n         1 MOL     -0.638517
     61 C19         5.6360   -4.1780    0.0730 c3        1 MOL      0.042684
     62 C20         6.3290   -2.9110   -0.4160 c         1 MOL      0.699888
     63 O10         6.8050   -2.0670    0.3680 o         1 MOL     -0.525554
     64 C21         6.3110   -5.4920   -0.4070 c3        1 MOL     -0.235518
     65 C22         7.5930   -5.9170    0.3700 c         1 MOL      0.673325
     66 O11         8.6250   -5.2110    0.3250 o         1 MOL     -0.621625
     67 O12         7.5850   -6.8880    1.1650 o         1 MOL     -0.621625
     68 H28         6.3540   -4.2210    2.0400 hn        1 MOL      0.401345
     69 H29         4.6490   -4.1060   -0.3780 h1        1 MOL      0.009623
     70 H30         6.4670   -5.4830   -1.4820 hc        1 MOL      0.036894
     71 H31         5.6840   -6.3700   -0.2340 hc        1 MOL      0.036894
     72 N7          6.4050   -2.7360   -1.7270 n         1 MOL     -0.578471
     73 C23         7.1510   -1.6650   -2.3600 c3        1 MOL     -0.105285
     74 C24         6.5740   -0.2790   -2.2000 c         1 MOL      0.523709
     75 O13         7.2110    0.6440   -2.7070 o         1 MOL     -0.570573
     76 H32         6.0910   -3.4820   -2.3380 hn        1 MOL      0.331704
     77 H33         7.3780   -1.9160   -3.3970 h1        1 MOL      0.130938
     78 H34         8.1280   -1.5580   -1.9000 h1        1 MOL      0.130938
     79 N8          5.4510   -0.0920   -1.5450 n         1 MOL     -0.351827
     80 C25         4.7350    1.1740   -1.2600 c3        1 MOL      0.006695
     81 C26         4.9010    1.5200    0.2210 c         1 MOL      0.529356
     82 O14         4.6480    0.7300    1.1010 o         1 MOL     -0.522149
     83 C27         3.3680    1.0330   -1.8570 c3        1 MOL      0.400928
     84 C28         3.5000    0.8370   -3.3640 c3        1 MOL     -0.382755
     85 O15         2.6290    2.2280   -1.6020 oh        1 MOL     -0.730343
     86 H35         5.1090   -0.8820   -1.0110 hn        1 MOL      0.212200
     87 H36         5.2760    1.9490   -1.8160 h1        1 MOL      0.069611
     88 H37         2.9640    0.1070   -1.4490 h1        1 MOL      0.021413
     89 H38         1.9200    2.3700   -2.2450 ho        1 MOL      0.448495
     90 H39         2.5700    0.7490   -3.9190 hc        1 MOL      0.091257
     91 H40         4.1770    1.5780   -3.7970 hc        1 MOL      0.091257
     92 H41         4.0830   -0.0600   -3.5840 hc        1 MOL      0.091257
     93 N9          5.4510    2.7200    0.3320 n         1 MOL     -0.301355
     94 C29         5.8040    3.5170    1.4940 c3        1 MOL     -0.166175
     95 C30         5.1820    4.9860    1.5430 c         1 MOL      0.575375
     96 O16         5.7940    5.8980    2.0520 o         1 MOL     -0.508803
     97 C31         7.3370    3.4500    1.6910 c3        1 MOL      0.263091
     98 C32         8.1700    4.1830    0.6510 c3        1 MOL     -0.058504
     99 C33         7.7380    1.9450    1.8330 c3        1 MOL     -0.375891
    100 C34         9.7510    4.1300    0.8700 c3        1 MOL     -0.259227
    101 H42         5.5470    3.2450   -0.5250 hn        1 MOL      0.264599
    102 H43         5.4440    3.1380    2.4460 h1        1 MOL      0.097273
    103 H44         7.5140    3.9600    2.6380 hc        1 MOL     -0.031315
    104 H45         7.7530    5.1960    0.5970 hc        1 MOL      0.031275
    105 H46         7.9040    3.7400   -0.3030 hc        1 MOL      0.031275
    106 H47         7.7900    1.5350    0.8260 hc        1 MOL      0.111346
    107 H48         8.6590    1.8570    2.4080 hc        1 MOL      0.111346
    108 H49         6.9310    1.4530    2.3700 hc        1 MOL      0.111346
    109 H50        10.1040    3.1040    0.9530 hc        1 MOL      0.071409
    110 H51        10.3370    4.5800    0.0780 hc        1 MOL      0.071409
    111 H52        10.0190    4.7530    1.7230 hc        1 MOL      0.071409
    112 N10         3.9840    5.0590    0.8950 n         1 MOL     -0.532410
    113 C35         3.2930    6.2870    0.7040 c3        1 MOL      0.004597
    114 C36         1.7570    6.3160    1.0650 c         1 MOL      0.608224
    115 O17         1.3810    7.4170    1.3950 o         1 MOL     -0.549266
    116 C37         3.5850    6.7690   -0.7380 c3        1 MOL      0.292703
    117 C38         2.9670    5.7940   -1.7470 c3        1 MOL     -0.135728
    118 O18         4.8960    6.8050   -1.0420 oh        1 MOL     -0.593601
    119 H53         3.6730    4.1600    0.5770 hn        1 MOL      0.272092
    120 H54         3.7390    7.0780    1.3150 h1        1 MOL      0.082004
    121 H55         3.1000    7.7170   -0.9340 h1        1 MOL     -0.014088
    122 H56         5.3450    7.5140   -0.5810 ho        1 MOL      0.404835
    123 H57         1.9420    5.5600   -1.4790 hc        1 MOL      0.038379
    124 H58         3.0150    6.1950   -2.7630 hc        1 MOL      0.038379
    125 H59         3.5690    4.8910   -1.8790 hc        1 MOL      0.038379
    126 N11         1.1370    5.1400    1.2230 n         1 MOL     -0.541356
    127 C39        -0.2740    4.8990    1.4440 c3        1 MOL      0.070236
    128 C40        -1.0160    5.2930    0.1430 c         1 MOL      0.546334
    129 O19        -0.5390    5.6950   -0.9210 o         1 MOL     -0.471763
    130 C41        -0.7650    5.5350    2.7520 c3        1 MOL      0.444375
    131 C42         0.1260    5.0900    3.9730 c3        1 MOL     -0.553248
    132 O20        -2.0570    5.1270    3.0340 oh        1 MOL     -0.653830
    133 H60         1.6140    4.2770    1.0300 hn        1 MOL      0.319408
    134 H61        -0.4310    3.8320    1.5890 h1        1 MOL      0.083673
    135 H62        -0.8100    6.6140    2.6220 h1        1 MOL     -0.017030
    136 H63        -2.4310    5.7670    3.6390 ho        1 MOL      0.394374
    137 H64        -0.4450    5.0660    4.9000 hc        1 MOL      0.148719
    138 H65         0.4910    4.0970    3.7040 hc        1 MOL      0.148719
    139 H66         1.0290    5.6840    4.0120 hc        1 MOL      0.148719
    140 N12        -2.3430    5.0790    0.1480 n         1 MOL     -0.581827
    141 C43        -3.2800    5.7180   -0.7810 c3        1 MOL      0.101380
    142 C44        -3.8200    4.8040   -1.9370 c         1 MOL      0.480428
    143 O21        -4.3520    5.3640   -2.9170 o         1 MOL     -0.578602
    144 C45        -4.4770    6.3090   -0.0390 c3        1 MOL     -0.197501
    145 C46        -5.3300    5.3040    0.7330 c3        1 MOL     -0.018775
    146 C47        -6.3550    6.1290    1.5410 c3        1 MOL     -0.151049
    147 C48        -7.1590    5.2040    2.4210 c3        1 MOL      0.037992
    148 N13        -7.7490    5.8520    3.6230 n4        1 MOL     -0.219165
    149 H67        -2.6840    4.6540    0.9990 hn        1 MOL      0.309108
    150 H68        -2.7410    6.5010   -1.3050 h1        1 MOL      0.108360
    151 H69        -5.0880    6.8740   -0.7260 hc        1 MOL      0.081466
    152 H70        -4.0000    7.0720    0.5730 hc        1 MOL      0.081466
    153 H71        -4.6750    4.7210    1.3890 hc        1 MOL      0.064850
    154 H72        -5.9070    4.6360    0.0850 hc        1 MOL      0.064850
    155 H73        -7.0620    6.6110    0.8670 hc        1 MOL      0.069677
    156 H74        -5.9860    6.8930    2.2280 hc        1 MOL      0.069677
    157 H75        -6.6120    4.3020    2.7010 hx        1 MOL      0.103503
    158 H76        -8.0270    4.8500    1.8640 hx        1 MOL      0.103503
    159 H77        -7.0470    6.2260    4.2570 hn        1 MOL      0.230692
    160 H78        -8.4000    6.6060    3.4110 hn        1 MOL      0.230692
    161 H79        -8.2720    5.2350    4.2200 hn        1 MOL      0.230692
    162 N14        -3.6940    3.5220   -1.8770 n         1 MOL     -0.275696
    163 C49        -4.3190    2.5550   -2.7960 c3        1 MOL     -0.222360
    164 C50        -5.8610    2.3630   -2.5450 c         1 MOL      0.557533
    165 O22        -6.2750    2.2000   -1.3770 o         1 MOL     -0.596967
    166 C51        -3.6330    1.1600   -2.6920 c3        1 MOL      0.161306
    167 C52        -3.9270    0.3730   -3.9960 c3        1 MOL      0.094841
    168 C53        -2.8740   -0.7330   -4.2350 c         1 MOL      0.689486
    169 O23        -3.3600   -1.8120   -4.6170 o         1 MOL     -0.812117
    170 O24        -1.6740   -0.7060   -3.9640 o         1 MOL     -0.812117
    171 H80        -3.2470    3.1610   -1.0420 hn        1 MOL      0.222080
    172 H81        -4.2530    3.0360   -3.7720 h1        1 MOL      0.125960
    173 H82        -3.8830    0.5710   -1.8190 hc        1 MOL      0.002894
    174 H83        -2.5620    1.3760   -2.6830 hc        1 MOL      0.002894
    175 H84        -3.8890    1.0210   -4.8710 hc        1 MOL     -0.044891
    176 H85        -4.9150   -0.0630   -3.8740 hc        1 MOL     -0.044891
    177 N15        -6.6650    2.4220   -3.5660 n         1 MOL     -0.223212
    178 C54        -8.0930    2.3980   -3.5920 c3        1 MOL     -0.076716
    179 H86        -8.4610    1.8080   -2.7510 h1        1 MOL      0.070372
    180 H87        -8.4750    3.4160   -3.5150 h1        1 MOL      0.070372
    181 H88        -8.4330    1.9510   -4.5260 h1        1 MOL      0.070372
    182 H89        -6.1240    2.6470   -4.3830 hn        1 MOL      0.213681
    183 Ca1        -1.1930   -3.4060   -4.1380 Ca        1 MOL      1.774752
    184 O25        -3.0380   -4.2320   -2.3660 oh        1 MOL     -0.927534
    185 H90        -2.9890   -3.8830   -1.4740 ho        1 MOL      0.455201
    186 H91        -3.6930   -4.9380   -2.3130 ho        1 MOL      0.455201
    187 O26         1.0800   -2.2000   -4.5660 oh        1 MOL     -0.927534
    188 H92         1.0680   -1.3610   -4.1010 ho        1 MOL      0.455201
    189 H93         1.5140   -2.0160   -5.3940 ho        1 MOL      0.455201
    190 O27         0.4500   -5.4490   -5.0080 oh        1 MOL     -0.927534
    191 H94         0.4630   -6.2880   -5.4730 ho        1 MOL      0.455201
    192 H95         1.3760   -5.2530   -4.8420 ho        1 MOL      0.455201
@<TRIPOS>BOND
     1    1    2 1   
     2    1    4 1   
     3    1    5 1   
     4    1    6 1   
     5    2    3 2   
     6    2    7 1   
     7    7    8 1   
     8    7   15 1   
     9    8    9 1   
    10    8   11 1   
    11    8   16 1   
    12    9   10 2   
    13    9   19 1   
    14   11   12 1   
    15   11   17 1   
    16   11   18 1   
    17   12   13 1   
    18   12   14 1   
    19   19   20 1   
    20   19   28 1   
    21   20   21 1   
    22   20   23 1   
    23   20   29 1   
    24   21   22 2   
    25   21   41 1   
    26   23   24 1   
    27   23   30 1   
    28   23   31 1   
    29   24   25 1   
    30   24   32 1   
    31   24   33 1   
    32   25   26 1   
    33   25   34 1   
    34   25   35 1   
    35   26   27 1   
    36   26   36 1   
    37   26   37 1   
    38   27   38 1   
    39   27   39 1   
    40   27   40 1   
    41   41   42 1   
    42   41   49 1   
    43   42   43 1   
    44   42   45 1   
    45   42   50 1   
    46   43   44 2   
    47   43   53 1   
    48   45   46 1   
    49   45   51 1   
    50   45   52 1   
    51   46   47 1   
    52   46   48 1   
    53   53   54 1   
    54   53   57 1   
    55   54   55 1   
    56   54   58 1   
    57   54   59 1   
    58   55   56 2   
    59   55   60 1   
    60   60   61 1   
    61   60   68 1   
    62   61   62 1   
    63   61   64 1   
    64   61   69 1   
    65   62   63 2   
    66   62   72 1   
    67   64   65 1   
    68   64   70 1   
    69   64   71 1   
    70   65   66 1   
    71   65   67 1   
    72   72   73 1   
    73   72   76 1   
    74   73   74 1   
    75   73   77 1   
    76   73   78 1   
    77   74   75 2   
    78   74   79 1   
    79   79   80 1   
    80   79   86 1   
    81   80   81 1   
    82   80   83 1   
    83   80   87 1   
    84   81   82 2   
    85   81   93 1   
    86   83   84 1   
    87   83   85 1   
    88   83   88 1   
    89   84   90 1   
    90   84   91 1   
    91   84   92 1   
    92   85   89 1   
    93   93   94 1   
    94   93  101 1   
    95   94   95 1   
    96   94   97 1   
    97   94  102 1   
    98   95   96 2   
    99   95  112 1   
   100   97   98 1   
   101   97   99 1   
   102   97  103 1   
   103   98  100 1   
   104   98  104 1   
   105   98  105 1   
   106   99  106 1   
   107   99  107 1   
   108   99  108 1   
   109  100  109 1   
   110  100  110 1   
   111  100  111 1   
   112  112  113 1   
   113  112  119 1   
   114  113  114 1   
   115  113  116 1   
   116  113  120 1   
   117  114  115 2   
   118  114  126 1   
   119  116  117 1   
   120  116  118 1   
   121  116  121 1   
   122  117  123 1   
   123  117  124 1   
   124  117  125 1   
   125  118  122 1   
   126  126  127 1   
   127  126  133 1   
   128  127  128 1   
   129  127  130 1   
   130  127  134 1   
   131  128  129 2   
   132  128  140 1   
   133  130  131 1   
   134  130  132 1   
   135  130  135 1   
   136  131  137 1   
   137  131  138 1   
   138  131  139 1   
   139  132  136 1   
   140  140  141 1   
   141  140  149 1   
   142  141  142 1   
   143  141  144 1   
   144  141  150 1   
   145  142  143 2   
   146  142  162 1   
   147  144  145 1   
   148  144  151 1   
   149  144  152 1   
   150  145  146 1   
   151  145  153 1   
   152  145  154 1   
   153  146  147 1   
   154  146  155 1   
   155  146  156 1   
   156  147  148 1   
   157  147  157 1   
   158  147  158 1   
   159  148  159 1   
   160  148  160 1   
   161  148  161 1   
   162  162  163 1   
   163  162  171 1   
   164  163  164 1   
   165  163  166 1   
   166  163  172 1   
   167  164  165 2   
   168  164  177 1   
   169  166  167 1   
   170  166  173 1   
   171  166  174 1   
   172  167  168 1   
   173  167  175 1   
   174  167  176 1   
   175  168  169 1   
   176  168  170 1   
   177  177  178 1   
   178  177  182 1   
   179  178  179 1   
   180  178  180 1   
   181  178  181 1   
   182  184  185 1   
   183  184  186 1   
   184  187  188 1   
   185  187  189 1   
   186  190  191 1   
   187  190  192 1   
@<TRIPOS>SUBSTRUCTURE
     1 MOL         1 TEMP              0 ****  ****    0 ROOT
