@<TRIPOS>MOLECULE
MOL
  192   187     1     0     0
SMALL
resp


@<TRIPOS>ATOM
      1 C1         10.5440   -0.3070    0.4880 c3        1 MOL     -0.448919
      2 C2          9.0780   -0.4300    0.0640 c         1 MOL      0.694017
      3 O1          8.1470   -0.4910    0.8790 o         1 MOL     -0.590500
      4 H1         11.1700   -0.8690   -0.2060 hc        1 MOL      0.116518
      5 H2         10.8390    0.7410    0.4750 hc        1 MOL      0.116518
      6 H3         10.6670   -0.7080    1.4940 hc        1 MOL      0.116518
      7 N1          8.8410   -0.4710   -1.2410 n         1 MOL     -0.607673
      8 C3          7.5100   -0.6950   -1.8720 c3        1 MOL      0.138116
      9 C4          6.7860   -2.0250   -1.6640 c         1 MOL      0.406231
     10 O2          6.5520   -2.8470   -2.5680 o         1 MOL     -0.486775
     11 C5          7.5820   -0.3620   -3.3370 c3        1 MOL     -0.182829
     12 C6          8.0620    1.0760   -3.5460 c         1 MOL      0.689540
     13 O3          8.8210    1.2990   -4.5600 o         1 MOL     -0.656238
     14 O4          7.7230    1.9600   -2.6900 o         1 MOL     -0.656238
     15 H4          9.6380   -0.4680   -1.8600 hn        1 MOL      0.363136
     16 H5          6.8520    0.0850   -1.4980 h1        1 MOL      0.102736
     17 H6          6.6240   -0.4130   -3.8570 hc        1 MOL      0.047997
     18 H7          8.3440   -0.9670   -3.8090 hc        1 MOL      0.047997
     19 N2          6.6590   -2.3270   -0.3570 n         1 MOL     -0.218518
     20 C7          6.1840   -3.6790    0.1370 c3        1 MOL     -0.052780
     21 C8          4.7070   -3.9910   -0.1600 c         1 MOL      0.543812
     22 O5          4.4400   -5.0710   -0.6630 o         1 MOL     -0.552088
     23 C9          6.5680   -3.9660    1.6590 c3        1 MOL     -0.088699
     24 C10         8.0200   -3.9290    1.8760 c3        1 MOL      0.180352
     25 C11         8.3430   -4.3790    3.3000 c3        1 MOL      0.052124
     26 C12         9.7980   -3.9240    3.6430 c3        1 MOL      0.044391
     27 N3         10.3120   -4.3390    4.9540 n4        1 MOL     -0.302041
     28 H8          6.9240   -1.5830    0.2730 hn        1 MOL      0.204325
     29 H9          6.7800   -4.3550   -0.4860 h1        1 MOL      0.093502
     30 H10         6.1720   -4.9210    2.0010 hc        1 MOL      0.029984
     31 H11         6.2030   -3.2330    2.3850 hc        1 MOL      0.029984
     32 H12         8.4030   -2.9230    1.7210 hc        1 MOL     -0.056341
     33 H13         8.5420   -4.5380    1.1310 hc        1 MOL     -0.056341
     34 H14         8.2560   -5.4580    3.3380 hc        1 MOL     -0.001681
     35 H15         7.6170   -3.9950    4.0160 hc        1 MOL     -0.001681
     36 H16         9.7680   -2.8380    3.6150 hx        1 MOL      0.058332
     37 H17        10.4870   -4.3590    2.9300 hx        1 MOL      0.058332
     38 H18         9.6590   -4.0350    5.6720 hn        1 MOL      0.263618
     39 H19        10.3450   -5.3450    4.9760 hn        1 MOL      0.263618
     40 H20        11.2410   -3.9650    5.0650 hn        1 MOL      0.263618
     41 N4          3.7500   -3.1610    0.2310 n         1 MOL     -0.400252
     42 C13         3.9240   -1.8500    0.9420 c3        1 MOL     -0.027039
     43 C14         3.9650   -0.6520   -0.0360 c         1 MOL      0.346051
     44 O6          3.9170   -0.8320   -1.2300 o         1 MOL     -0.376295
     45 C15         2.7270   -1.7080    1.9440 c3        1 MOL     -0.281495
     46 C16         1.3230   -1.8720    1.2970 c         1 MOL      0.816928
     47 O7          1.0710   -1.3870    0.1680 o         1 MOL     -0.715614
     48 O8          0.4890   -2.4850    1.8590 o         1 MOL     -0.715614
     49 H21         2.8180   -3.4710    0.0270 hn        1 MOL      0.339425
     50 H22         4.8200   -1.7920    1.5600 h1        1 MOL      0.094053
     51 H23         2.6260   -0.7800    2.5010 hc        1 MOL      0.050041
     52 H24         2.8850   -2.4920    2.6790 hc        1 MOL      0.050041
     53 N5          4.1990    0.5100    0.5490 n         1 MOL     -0.428326
     54 C17         4.2660    1.7830   -0.2070 c3        1 MOL      0.085076
     55 C18         2.9560    2.3110   -0.7790 c         1 MOL      0.757645
     56 O9          1.9210    1.5960   -0.7930 o         1 MOL     -0.789469
     57 H25         4.3940    0.5930    1.5430 hn        1 MOL      0.299874
     58 H26         4.9130    1.6680   -1.0790 h1        1 MOL      0.023379
     59 H27         4.6700    2.5620    0.4350 h1        1 MOL      0.023379
     60 N6          2.9950    3.5480   -1.2320 n         1 MOL     -0.442903
     61 C19         2.0680    4.3620   -1.9110 c3        1 MOL      0.087317
     62 C20         2.5680    5.8630   -1.9730 c         1 MOL      0.563608
     63 O10         3.7350    6.1060   -1.7240 o         1 MOL     -0.525660
     64 C21         1.8370    3.8620   -3.3210 c3        1 MOL     -0.131431
     65 C22         1.2370    2.4420   -3.3370 c         1 MOL      0.657365
     66 O11         1.8140    1.6510   -4.1050 o         1 MOL     -0.655152
     67 O12         0.1150    2.2870   -2.8300 o         1 MOL     -0.655152
     68 H28         3.8910    4.0080   -1.2220 hn        1 MOL      0.244576
     69 H29         1.1510    4.2370   -1.3390 h1        1 MOL      0.079159
     70 H30         2.7540    3.9170   -3.9070 hc        1 MOL      0.042385
     71 H31         1.2110    4.5320   -3.9170 hc        1 MOL      0.042385
     72 N7          1.7100    6.8280   -2.2470 n         1 MOL     -0.525584
     73 C23         0.2200    6.6920   -2.3200 c3        1 MOL      0.029394
     74 C24        -0.4420    6.2440   -1.0190 c         1 MOL      0.589806
     75 O13        -0.0310    6.5440    0.0960 o         1 MOL     -0.524865
     76 H32         1.9830    7.7720   -2.4840 hn        1 MOL      0.340624
     77 H33        -0.0530    6.1150   -3.2040 h1        1 MOL      0.048143
     78 H34        -0.2150    7.6840   -2.4540 h1        1 MOL      0.048143
     79 N8         -1.4680    5.4140   -1.1660 n         1 MOL     -0.557869
     80 C25        -2.1920    4.9410   -0.0210 c3        1 MOL      0.089462
     81 C26        -1.4040    3.7660    0.5780 c         1 MOL      0.226584
     82 O14        -0.9040    2.8160   -0.0880 o         1 MOL     -0.407059
     83 C27        -3.6540    4.6620   -0.3700 c3        1 MOL      0.330003
     84 C28        -4.4560    4.0020    0.7640 c3        1 MOL     -0.318772
     85 O15        -3.6770    3.7380   -1.4220 oh        1 MOL     -0.580232
     86 H35        -1.7230    5.1240   -2.0960 hn        1 MOL      0.301215
     87 H36        -2.2760    5.7140    0.7460 h1        1 MOL      0.078530
     88 H37        -4.1550    5.5800   -0.6690 h1        1 MOL      0.024101
     89 H38        -4.4530    3.8370   -1.9840 ho        1 MOL      0.409215
     90 H39        -5.4700    3.8210    0.4310 hc        1 MOL      0.067619
     91 H40        -4.1160    3.0090    1.0490 hc        1 MOL      0.067619
     92 H41        -4.4480    4.6470    1.6460 hc        1 MOL      0.067619
     93 N9         -1.3880    3.8040    1.9050 n         1 MOL     -0.370424
     94 C29        -0.6480    2.9050    2.7930 c3        1 MOL     -0.179615
     95 C30        -1.1820    1.4450    2.7040 c         1 MOL      0.812535
     96 O16        -0.7730    0.5890    1.8610 o         1 MOL     -0.611924
     97 C31         0.8870    2.9990    2.6160 c3        1 MOL      0.119168
     98 C32         1.3060    4.5240    2.5540 c3        1 MOL      0.063108
     99 C33         1.7090    2.1760    3.6310 c3        1 MOL     -0.416867
    100 C34         2.8060    4.8010    2.6410 c3        1 MOL     -0.152774
    101 H42        -1.8640    4.5440    2.4130 hn        1 MOL      0.309373
    102 H43        -0.8650    3.2730    3.7930 h1        1 MOL      0.082179
    103 H44         1.1430    2.5840    1.6360 hc        1 MOL      0.068924
    104 H45         0.8900    5.0530    3.4080 hc        1 MOL      0.006773
    105 H46         0.8920    5.0420    1.6920 hc        1 MOL      0.006773
    106 H47         2.7430    2.0410    3.3110 hc        1 MOL      0.104430
    107 H48         1.7630    2.7230    4.5730 hc        1 MOL      0.104430
    108 H49         1.2500    1.2200    3.9080 hc        1 MOL      0.104430
    109 H50         3.3180    4.0430    2.0520 hc        1 MOL      0.038837
    110 H51         3.0840    5.7950    2.2940 hc        1 MOL      0.038837
    111 H52         3.0720    4.7020    3.6930 hc        1 MOL      0.038837
    112 N10        -2.2550    1.1310    3.5060 n         1 MOL     -0.672373
    113 C35        -2.6930   -0.2690    3.8150 c3        1 MOL      0.118940
    114 C36        -4.1380   -0.6010    3.2880 c         1 MOL      0.354763
    115 O17        -4.5410   -1.6920    3.0780 o         1 MOL     -0.543705
    116 C37        -2.6070   -0.6230    5.3620 c3        1 MOL      0.459163
    117 C38        -3.4600    0.3120    6.1690 c3        1 MOL     -0.221411
    118 O18        -1.3020   -0.4380    5.7780 oh        1 MOL     -0.635452
    119 H53        -2.5740    1.8090    4.1950 hn        1 MOL      0.312428
    120 H54        -2.0260   -0.9970    3.3620 h1        1 MOL      0.065043
    121 H55        -2.8300   -1.6900    5.4600 h1        1 MOL     -0.020948
    122 H56        -0.8020   -1.1370    5.3570 ho        1 MOL      0.404889
    123 H57        -3.2910    1.3400    5.8440 hc        1 MOL      0.048034
    124 H58        -4.5070    0.1310    5.9330 hc        1 MOL      0.048034
    125 H59        -3.2460    0.0230    7.2000 hc        1 MOL      0.048034
    126 N11        -4.9360    0.3630    2.9300 n         1 MOL     -0.056041
    127 C39        -6.3160    0.1020    2.4270 c3        1 MOL     -0.224560
    128 C40        -6.2270   -0.3990    1.0350 c         1 MOL      0.654704
    129 O19        -5.6820    0.2130    0.1520 o         1 MOL     -0.541607
    130 C41        -7.0880    1.3180    2.6480 c3        1 MOL      0.200568
    131 C42        -8.5650    1.2920    2.2810 c3        1 MOL     -0.234898
    132 O20        -7.0290    1.5000    4.0330 oh        1 MOL     -0.562495
    133 H60        -4.5510    1.2940    2.9530 hn        1 MOL      0.158495
    134 H61        -6.7690   -0.6980    3.0030 h1        1 MOL      0.123070
    135 H62        -6.5710    2.1090    2.1020 h1        1 MOL      0.043745
    136 H63        -6.1180    1.6480    4.2870 ho        1 MOL      0.354166
    137 H64        -9.0860    2.2290    2.4670 hc        1 MOL      0.087714
    138 H65        -8.7490    1.0610    1.2310 hc        1 MOL      0.087714
    139 H66        -9.1960    0.5880    2.8300 hc        1 MOL      0.087714
    140 N12        -6.9610   -1.5440    0.7980 n         1 MOL     -0.413597
    141 C43        -7.1940   -2.2340   -0.5000 c3        1 MOL     -0.039147
    142 C44        -5.9110   -2.4060   -1.3010 c         1 MOL      0.526192
    143 O21        -5.7830   -1.9600   -2.4390 o         1 MOL     -0.523433
    144 C45        -8.4310   -1.6260   -1.2960 c3        1 MOL     -0.132225
    145 C46        -9.7430   -1.7680   -0.5490 c3        1 MOL      0.006510
    146 C47       -10.9680   -1.2190   -1.3070 c3        1 MOL     -0.106886
    147 C48       -11.4000   -2.1220   -2.5040 c3        1 MOL      0.002193
    148 N13       -12.7050   -1.7310   -2.9870 n4        1 MOL     -0.081851
    149 H67        -7.4140   -1.9060    1.6240 hn        1 MOL      0.253002
    150 H68        -7.4760   -3.2690   -0.3320 h1        1 MOL      0.103525
    151 H69        -8.5550   -2.0890   -2.2730 hc        1 MOL      0.084589
    152 H70        -8.3550   -0.6030   -1.6650 hc        1 MOL      0.084589
    153 H71        -9.7100   -1.1530    0.3500 hc        1 MOL      0.020830
    154 H72        -9.9430   -2.8180   -0.3370 hc        1 MOL      0.020830
    155 H73       -10.6940   -0.2560   -1.7350 hc        1 MOL      0.042443
    156 H74       -11.7800   -1.0110   -0.6080 hc        1 MOL      0.042443
    157 H75       -11.3570   -3.1730   -2.2140 hx        1 MOL      0.086748
    158 H76       -10.6070   -2.0430   -3.2470 hx        1 MOL      0.086748
    159 H77       -13.4480   -2.1090   -2.4190 hn        1 MOL      0.182353
    160 H78       -12.8040   -0.7590   -2.7670 hn        1 MOL      0.182353
    161 H79       -12.8230   -1.8000   -3.9840 hn        1 MOL      0.182353
    162 N14        -4.8710   -3.1160   -0.7480 n         1 MOL     -0.567073
    163 C49        -3.5840   -3.3130   -1.4260 c3        1 MOL      0.627238
    164 C50        -2.3400   -2.8350   -0.6600 c         1 MOL      0.217944
    165 O22        -1.6740   -1.9030   -1.0670 o         1 MOL     -0.551282
    166 C51        -3.3200   -4.6700   -2.0070 c3        1 MOL     -0.169686
    167 C52        -4.1650   -4.8040   -3.2290 c3        1 MOL     -0.368645
    168 C53        -4.0440   -6.2300   -3.8390 c         1 MOL      0.722828
    169 O23        -3.3380   -6.5540   -4.8160 o         1 MOL     -0.625160
    170 O24        -4.7170   -7.0840   -3.2410 o         1 MOL     -0.625160
    171 H80        -5.0160   -3.4740    0.1880 hn        1 MOL      0.276982
    172 H81        -3.5350   -2.5240   -2.1770 h1        1 MOL     -0.042750
    173 H82        -3.5400   -5.3660   -1.1990 hc        1 MOL      0.098658
    174 H83        -2.2880   -4.7680   -2.3290 hc        1 MOL      0.098658
    175 H84        -3.9310   -4.0150   -3.9360 hc        1 MOL      0.077860
    176 H85        -5.1810   -4.5250   -2.9180 hc        1 MOL      0.077860
    177 N15        -1.9430   -3.4130    0.4650 n         1 MOL     -0.335992
    178 C54        -2.4570   -4.7040    0.9950 c3        1 MOL      0.029941
    179 H86        -1.6500   -5.4370    1.0090 h1        1 MOL      0.015579
    180 H87        -2.8320   -4.5590    2.0080 h1        1 MOL      0.015579
    181 H88        -3.2630   -5.0640    0.3560 h1        1 MOL      0.015579
    182 H89        -1.0740   -3.0350    0.8010 hn        1 MOL      0.357656
    183 Ca1        -0.4060    0.4650   -0.9290 Ca        1 MOL      1.788176
    184 O25         1.6610   -0.7700   -2.7330 oh        1 MOL     -0.846729
    185 H90         2.5240   -0.8430   -2.3350 ho        1 MOL      0.409354
    186 H91         1.6450    0.1000   -3.1220 ho        1 MOL      0.409354
    187 O26        -3.1140    1.1810   -0.7110 oh        1 MOL     -0.846729
    188 H92        -3.7660    0.5690   -0.3730 ho        1 MOL      0.409354
    189 H93        -3.6190    1.9390   -0.9970 ho        1 MOL      0.409354
    190 O27        -1.7850   -0.1660   -3.2950 oh        1 MOL     -0.846729
    191 H94        -2.6230    0.2120   -3.5650 ho        1 MOL      0.409354
    192 H95        -1.7400   -0.9930   -3.7580 ho        1 MOL      0.409354
@<TRIPOS>BOND
     1    1    2 1   
     2    1    4 1   
     3    1    5 1   
     4    1    6 1   
     5    2    3 2   
     6    2    7 1   
     7    7    8 1   
     8    7   15 1   
     9    8    9 1   
    10    8   11 1   
    11    8   16 1   
    12    9   10 2   
    13    9   19 1   
    14   11   12 1   
    15   11   17 1   
    16   11   18 1   
    17   12   13 1   
    18   12   14 1   
    19   19   20 1   
    20   19   28 1   
    21   20   21 1   
    22   20   23 1   
    23   20   29 1   
    24   21   22 2   
    25   21   41 1   
    26   23   24 1   
    27   23   30 1   
    28   23   31 1   
    29   24   25 1   
    30   24   32 1   
    31   24   33 1   
    32   25   26 1   
    33   25   34 1   
    34   25   35 1   
    35   26   27 1   
    36   26   36 1   
    37   26   37 1   
    38   27   38 1   
    39   27   39 1   
    40   27   40 1   
    41   41   42 1   
    42   41   49 1   
    43   42   43 1   
    44   42   45 1   
    45   42   50 1   
    46   43   44 2   
    47   43   53 1   
    48   45   46 1   
    49   45   51 1   
    50   45   52 1   
    51   46   47 1   
    52   46   48 1   
    53   53   54 1   
    54   53   57 1   
    55   54   55 1   
    56   54   58 1   
    57   54   59 1   
    58   55   56 2   
    59   55   60 1   
    60   60   61 1   
    61   60   68 1   
    62   61   62 1   
    63   61   64 1   
    64   61   69 1   
    65   62   63 2   
    66   62   72 1   
    67   64   65 1   
    68   64   70 1   
    69   64   71 1   
    70   65   66 1   
    71   65   67 1   
    72   72   73 1   
    73   72   76 1   
    74   73   74 1   
    75   73   77 1   
    76   73   78 1   
    77   74   75 2   
    78   74   79 1   
    79   79   80 1   
    80   79   86 1   
    81   80   81 1   
    82   80   83 1   
    83   80   87 1   
    84   81   82 2   
    85   81   93 1   
    86   83   84 1   
    87   83   85 1   
    88   83   88 1   
    89   84   90 1   
    90   84   91 1   
    91   84   92 1   
    92   85   89 1   
    93   93   94 1   
    94   93  101 1   
    95   94   95 1   
    96   94   97 1   
    97   94  102 1   
    98   95   96 2   
    99   95  112 1   
   100   97   98 1   
   101   97   99 1   
   102   97  103 1   
   103   98  100 1   
   104   98  104 1   
   105   98  105 1   
   106   99  106 1   
   107   99  107 1   
   108   99  108 1   
   109  100  109 1   
   110  100  110 1   
   111  100  111 1   
   112  112  113 1   
   113  112  119 1   
   114  113  114 1   
   115  113  116 1   
   116  113  120 1   
   117  114  115 2   
   118  114  126 1   
   119  116  117 1   
   120  116  118 1   
   121  116  121 1   
   122  117  123 1   
   123  117  124 1   
   124  117  125 1   
   125  118  122 1   
   126  126  127 1   
   127  126  133 1   
   128  127  128 1   
   129  127  130 1   
   130  127  134 1   
   131  128  129 2   
   132  128  140 1   
   133  130  131 1   
   134  130  132 1   
   135  130  135 1   
   136  131  137 1   
   137  131  138 1   
   138  131  139 1   
   139  132  136 1   
   140  140  141 1   
   141  140  149 1   
   142  141  142 1   
   143  141  144 1   
   144  141  150 1   
   145  142  143 2   
   146  142  162 1   
   147  144  145 1   
   148  144  151 1   
   149  144  152 1   
   150  145  146 1   
   151  145  153 1   
   152  145  154 1   
   153  146  147 1   
   154  146  155 1   
   155  146  156 1   
   156  147  148 1   
   157  147  157 1   
   158  147  158 1   
   159  148  159 1   
   160  148  160 1   
   161  148  161 1   
   162  162  163 1   
   163  162  171 1   
   164  163  164 1   
   165  163  166 1   
   166  163  172 1   
   167  164  165 2   
   168  164  177 1   
   169  166  167 1   
   170  166  173 1   
   171  166  174 1   
   172  167  168 1   
   173  167  175 1   
   174  167  176 1   
   175  168  169 1   
   176  168  170 1   
   177  177  178 1   
   178  177  182 1   
   179  178  179 1   
   180  178  180 1   
   181  178  181 1   
   182  184  185 1   
   183  184  186 1   
   184  187  188 1   
   185  187  189 1   
   186  190  191 1   
   187  190  192 1   
@<TRIPOS>SUBSTRUCTURE
     1 MOL         1 TEMP              0 ****  ****    0 ROOT
