@<TRIPOS>MOLECULE
MOL
  189   185     1     0     0
SMALL
resp


@<TRIPOS>ATOM
      1 C1         -3.9620   -4.0280   -3.9300 c3        1 MOL     -0.391144
      2 C2         -4.8180   -3.3920   -2.7960 c         1 MOL      0.803673
      3 O1         -4.2610   -3.0320   -1.7150 o         1 MOL     -0.717483
      4 H1         -2.9170   -4.0580   -3.6210 hc        1 MOL      0.100892
      5 H2         -4.3130   -5.0410   -4.1260 hc        1 MOL      0.100892
      6 H3         -4.0560   -3.4290   -4.8360 hc        1 MOL      0.100892
      7 N1         -6.1270   -3.0610   -3.0200 n         1 MOL     -0.748951
      8 C3         -7.0380   -2.1250   -2.2250 c3        1 MOL      0.344429
      9 C4         -6.2910   -0.8580   -1.6210 c         1 MOL      0.142720
     10 O2         -5.7110   -0.8270   -0.5320 o         1 MOL     -0.138982
     11 C5         -7.9580   -2.8970   -1.2840 c3        1 MOL     -0.271204
     12 C6         -7.3060   -4.0280   -0.4700 c         1 MOL      0.826524
     13 O3         -6.4080   -3.7520    0.2880 o         1 MOL     -0.752830
     14 O4         -7.7620   -5.1960   -0.4880 o         1 MOL     -0.752830
     15 H4         -6.4700   -3.3400   -3.9290 hn        1 MOL      0.339956
     16 H5         -7.6530   -1.7060   -3.0200 h1        1 MOL      0.004387
     17 H6         -8.7540   -3.3590   -1.8670 hc        1 MOL      0.042528
     18 H7         -8.4980   -2.2240   -0.6220 hc        1 MOL      0.042528
     19 N2         -6.2590    0.1320   -2.5100 n         1 MOL     -0.417019
     20 C7         -5.4900    1.3700   -2.4410 c3        1 MOL      0.124737
     21 C8         -6.0970    2.4310   -1.5110 c         1 MOL      0.369019
     22 O5         -6.4260    3.5180   -1.9160 o         1 MOL     -0.555060
     23 C9         -3.9850    1.0520   -2.2700 c3        1 MOL      0.188418
     24 C10        -3.1860    2.3970   -2.3430 c3        1 MOL     -0.120774
     25 C11        -3.3220    0.0600   -3.2900 c3        1 MOL     -0.052243
     26 C12        -3.2650    3.2450   -3.6290 c3        1 MOL     -0.242963
     27 H8         -6.6560    0.0750   -3.4300 hn        1 MOL      0.293189
     28 H9         -5.4970    1.7960   -3.4350 h1        1 MOL      0.009434
     29 H10        -3.8800    0.5750   -1.3030 hc        1 MOL     -0.116816
     30 H11        -2.1320    2.1490   -2.2130 hc        1 MOL      0.106332
     31 H12        -3.4680    3.1070   -1.5550 hc        1 MOL      0.106332
     32 H13        -3.3690    0.4620   -4.3020 hc        1 MOL     -0.000969
     33 H14        -2.3030   -0.1730   -3.0180 hc        1 MOL     -0.000969
     34 H15        -3.8980   -0.8590   -3.3040 hc        1 MOL     -0.000969
     35 H16        -4.0860    3.9190   -3.4330 hc        1 MOL      0.045462
     36 H17        -2.4330    3.9440   -3.7010 hc        1 MOL      0.045462
     37 H18        -3.3750    2.7360   -4.5890 hc        1 MOL      0.045462
     38 N3         -6.4170    2.0510   -0.2960 n         1 MOL     -0.034429
     39 C13        -7.1390    2.8440    0.6880 c3        1 MOL      0.047530
     40 C14        -6.3220    3.9570    1.2920 c         1 MOL      0.521849
     41 O6         -6.8910    5.0470    1.3740 o         1 MOL     -0.592560
     42 C15        -7.7560    1.9990    1.8610 c3        1 MOL     -0.288304
     43 C16        -8.6450    0.8410    1.4160 c         1 MOL      0.782890
     44 O7         -8.4240   -0.3340    1.8130 o         1 MOL     -0.717825
     45 O8         -9.6130    1.0360    0.7250 o         1 MOL     -0.717825
     46 H19        -6.1630    1.0890   -0.1030 hn        1 MOL      0.073211
     47 H20        -7.9480    3.3250    0.1340 h1        1 MOL      0.061969
     48 H21        -8.4100    2.5990    2.4880 hc        1 MOL      0.065129
     49 H22        -6.9230    1.5530    2.4160 hc        1 MOL      0.065129
     50 N4         -5.1800    3.7970    1.9480 n         1 MOL     -0.417135
     51 C17        -4.2860    2.5960    2.0560 c3        1 MOL     -0.024748
     52 C18        -2.9370    2.9990    2.7570 c         1 MOL      0.738441
     53 O9         -2.6050    4.1640    2.9830 o         1 MOL     -0.647089
     54 H23        -4.8660    4.6140    2.4430 hn        1 MOL      0.257565
     55 H24        -4.0830    2.3730    1.0100 h1        1 MOL      0.048847
     56 H25        -4.7410    1.6980    2.4790 h1        1 MOL      0.048847
     57 N5         -2.0490    2.1540    3.2310 n         1 MOL     -0.692030
     58 C19        -1.9160    0.7320    2.9590 c3        1 MOL      0.479077
     59 C20        -2.1160    0.4390    1.4450 c         1 MOL      0.000625
     60 O10        -3.1440    0.0190    1.0240 o         1 MOL     -0.487989
     61 C21        -2.8660   -0.0020    3.8910 c3        1 MOL     -0.476763
     62 C22        -2.7840   -1.5260    3.9200 c         1 MOL      0.748724
     63 O11        -3.1350   -2.1110    5.0000 o         1 MOL     -0.695568
     64 O12        -2.4020   -2.0840    2.8840 o         1 MOL     -0.695568
     65 H26        -1.3920    2.6170    3.8480 hn        1 MOL      0.335354
     66 H27        -0.9000    0.4980    3.2830 h1        1 MOL      0.057215
     67 H28        -3.9000    0.3110    3.7700 hc        1 MOL      0.097093
     68 H29        -2.4820    0.3220    4.8620 hc        1 MOL      0.097093
     69 N6         -1.1700    0.7560    0.5720 n         1 MOL     -0.029826
     70 C23         0.1240    1.4510    0.7790 c3        1 MOL     -0.184322
     71 C24        -0.0020    2.8880    0.2470 c         1 MOL      0.679045
     72 O13        -0.9080    3.2410   -0.5090 o         1 MOL     -0.547135
     73 H30        -1.3560    0.4820   -0.3840 hn        1 MOL      0.261454
     74 H31         0.8660    0.9080    0.1980 h1        1 MOL      0.064799
     75 H32         0.3920    1.3670    1.8300 h1        1 MOL      0.064799
     76 N7          0.9580    3.7180    0.6820 n         1 MOL     -0.564712
     77 C25         1.1880    5.0200    0.0830 c3        1 MOL      0.124425
     78 C26         1.8850    4.9380   -1.3450 c         1 MOL      0.382332
     79 O14         1.9280    5.9610   -2.0430 o         1 MOL     -0.505829
     80 C27         1.9180    5.8050    1.1490 c3        1 MOL     -0.250541
     81 C28         0.8590    6.4760    2.0570 c3        1 MOL     -0.034087
     82 C29         1.4580    7.1050    3.3650 c         1 MOL      0.614023
     83 N8          0.5800    7.5710    4.1110 n         1 MOL     -0.748138
     84 O15         2.6150    7.0130    3.7110 o         1 MOL     -0.560087
     85 H33         1.6950    3.3130    1.2620 hn        1 MOL      0.324801
     86 H34         0.2810    5.5930   -0.0960 h1        1 MOL      0.120135
     87 H35         2.4300    6.6320    0.6620 hc        1 MOL      0.090192
     88 H36         2.5750    5.2090    1.7810 hc        1 MOL      0.090192
     89 H37         0.1630    5.6870    2.3150 hc        1 MOL      0.031139
     90 H38         0.2170    7.2160    1.5830 hc        1 MOL      0.031139
     91 H39        -0.3840    7.4970    3.8140 hn        1 MOL      0.353467
     92 H40         0.7670    8.0030    5.0020 hn        1 MOL      0.353467
     93 N9          2.4660    3.7940   -1.7070 n         1 MOL     -0.136604
     94 C30         2.9790    3.4670   -3.0960 c3        1 MOL     -0.221728
     95 C31         4.3900    2.8160   -3.0920 c         1 MOL      0.691742
     96 O16         4.9710    2.6400   -4.1660 o         1 MOL     -0.574940
     97 C32         1.9430    2.5890   -3.9070 c3        1 MOL      0.041164
     98 C33         0.5330    3.3070   -4.0320 c3        1 MOL     -0.115537
     99 C34         1.7860    1.3010   -3.0710 c3        1 MOL     -0.115537
    100 H41         2.3450    3.0440   -1.0380 hn        1 MOL      0.143528
    101 H42         3.1170    4.4440   -3.5510 h1        1 MOL      0.142983
    102 H43         2.3170    2.2410   -4.8620 hc        1 MOL      0.050411
    103 H44         0.6420    4.1120   -4.7720 hc        1 MOL      0.036182
    104 H45        -0.1270    2.5860   -4.5110 hc        1 MOL      0.036182
    105 H46         0.1380    3.6100   -3.0720 hc        1 MOL      0.036182
    106 H47         1.0290    0.6190   -3.4640 hc        1 MOL      0.036182
    107 H48         2.6910    0.7130   -3.2150 hc        1 MOL      0.036182
    108 H49         1.4810    1.5980   -2.0660 hc        1 MOL      0.036182
    109 N10         5.0290    2.5260   -1.9580 n         1 MOL     -0.606769
    110 C35         6.4940    2.3880   -1.8920 c3        1 MOL      0.194265
    111 C36         6.9990    1.0140   -1.3640 c         1 MOL      0.428538
    112 O17         8.1590    0.6290   -1.3920 o         1 MOL     -0.513526
    113 C37         7.0020    3.4690   -0.9800 c3        1 MOL     -0.409286
    114 C38         6.6210    4.9350   -1.3070 c         1 MOL      0.705346
    115 N11         7.1700    5.6140   -2.2400 n         1 MOL     -0.748177
    116 O18         5.7890    5.4760   -0.6380 o         1 MOL     -0.585828
    117 H50         4.5440    2.6020   -1.0740 hn        1 MOL      0.327094
    118 H51         6.9560    2.4640   -2.8780 h1        1 MOL      0.083084
    119 H52         8.0940    3.4270   -1.0170 hc        1 MOL      0.121199
    120 H53         6.6970    3.2370    0.0320 hc        1 MOL      0.121199
    121 H54         7.9310    5.2560   -2.8010 hn        1 MOL      0.356168
    122 H55         6.8800    6.5860   -2.1670 hn        1 MOL      0.356168
    123 N12         6.0940    0.2320   -0.7580 n         1 MOL     -0.305443
    124 C39         6.3550   -1.0440   -0.1490 c3        1 MOL      0.204727
    125 C40         5.0360   -1.9400   -0.0060 c         1 MOL      0.234400
    126 O19         3.8850   -1.4610    0.0680 o         1 MOL     -0.401396
    127 C41         6.8760   -0.8900    1.3440 c3        1 MOL     -0.102181
    128 C42         8.4000   -1.0440    1.5830 ca        1 MOL     -0.001757
    129 C43         8.8700   -2.3180    2.0010 ca        1 MOL     -0.134291
    130 C44         9.2980   -0.0100    1.3440 ca        1 MOL     -0.134291
    131 C45        10.2880   -2.5470    2.1210 ca        1 MOL     -0.281294
    132 C46        10.6280   -0.1540    1.6810 ca        1 MOL     -0.281294
    133 C47        11.1490   -1.4460    1.9310 ca        1 MOL      0.353379
    134 O20        12.4520   -1.6190    2.1850 oh        1 MOL     -0.490242
    135 H56         5.1410    0.5130   -0.5690 hn        1 MOL      0.172263
    136 H57         7.0550   -1.5440   -0.8180 h1        1 MOL      0.035568
    137 H58         6.4360   -1.6720    1.9610 hc        1 MOL      0.065933
    138 H59         6.5970    0.1110    1.6790 hc        1 MOL      0.065933
    139 H60         8.1560   -3.1000    2.2120 ha        1 MOL      0.145651
    140 H61         8.9000    0.9820    1.1920 ha        1 MOL      0.145651
    141 H62        10.7460   -3.4770    2.4170 ha        1 MOL      0.143924
    142 H63        11.2330    0.7340    1.5700 ha        1 MOL      0.143924
    143 H64        12.6210   -2.5610    2.1690 ho        1 MOL      0.346169
    144 N13         5.2930   -3.2380    0.2590 n         1 MOL     -0.288637
    145 C48         4.3940   -4.3500    0.6700 c3        1 MOL      0.124024
    146 C49         3.2370   -4.7540   -0.2710 c         1 MOL      0.214050
    147 O21         2.8290   -5.9310   -0.2580 o         1 MOL     -0.462607
    148 C50         3.7670   -4.1570    2.1680 c3        1 MOL      0.088246
    149 C51         4.1740   -5.2890    3.1380 c3        1 MOL     -0.080043
    150 C52         3.4550   -5.2350    4.4410 c         1 MOL      0.728278
    151 O22         3.4140   -4.1530    5.1200 o         1 MOL     -0.739413
    152 O23         3.0380   -6.3020    4.9090 o         1 MOL     -0.739413
    153 H65         6.2290   -3.5860    0.0820 hn        1 MOL      0.204460
    154 H66         5.0540   -5.2190    0.7360 h1        1 MOL      0.032148
    155 H67         2.6840   -4.1660    2.0590 hc        1 MOL     -0.001282
    156 H68         3.9630   -3.1860    2.6190 hc        1 MOL     -0.001282
    157 H69         5.2140   -5.1020    3.4010 hc        1 MOL     -0.037133
    158 H70         4.0450   -6.2530    2.6560 hc        1 MOL     -0.037133
    159 N14         2.7950   -3.8300   -1.1190 n         1 MOL     -0.037257
    160 C53         1.7140   -4.0960   -2.0690 c3        1 MOL     -0.058660
    161 C54         2.3590   -4.7130   -3.3580 c         1 MOL      0.414238
    162 O24         1.7270   -5.4820   -4.0770 o         1 MOL     -0.522375
    163 C55         1.0260   -2.7740   -2.4400 c3        1 MOL     -0.082946
    164 C56         0.5850   -1.9130   -1.2660 c3        1 MOL      0.399129
    165 C57        -0.5690   -2.5680   -0.4280 c         1 MOL      0.566284
    166 O25        -1.7160   -2.0600   -0.4320 o         1 MOL     -0.620017
    167 O26        -0.2860   -3.6180    0.2080 o         1 MOL     -0.620017
    168 H71         3.1390   -2.9060   -0.9190 hn        1 MOL      0.143187
    169 H72         1.0280   -4.8300   -1.6690 h1        1 MOL      0.124234
    170 H73         0.1590   -2.9220   -3.0970 hc        1 MOL      0.004497
    171 H74         1.6940   -2.1060   -2.9830 hc        1 MOL      0.004497
    172 H75         0.2250   -0.9460   -1.6150 hc        1 MOL     -0.171732
    173 H76         1.4070   -1.6750   -0.5840 hc        1 MOL     -0.171732
    174 N15         3.6720   -4.5040   -3.5320 n         1 MOL     -0.151409
    175 C58         4.5660   -5.1990   -4.4050 c3        1 MOL     -0.352947
    176 H77         5.5820   -5.1230   -4.0180 h1        1 MOL      0.123579
    177 H78         4.2770   -6.2480   -4.4620 h1        1 MOL      0.123579
    178 H79         4.5220   -4.7540   -5.4000 h1        1 MOL      0.123579
    179 H80         4.1320   -3.8950   -2.8740 hn        1 MOL      0.144533
    180 Ca1        -4.0020   -2.5850    0.7860 Ca        1 MOL      1.771520
    181 O27        -5.9540   -1.4140    2.3140 oh        1 MOL     -0.858483
    182 H81        -6.1980   -1.3900    3.2390 ho        1 MOL      0.406416
    183 H82        -6.7010   -1.0250    1.8570 ho        1 MOL      0.406416
    184 O28        -2.6820   -4.7330    0.2130 oh        1 MOL     -0.858483
    185 H83        -1.7780   -4.4500    0.1560 ho        1 MOL      0.406416
    186 H84        -2.7030   -5.5670   -0.2650 ho        1 MOL      0.406416
    187 O29        -4.1580   -4.1480    2.9230 oh        1 MOL     -0.858483
    188 H85        -4.6640   -4.1820    3.7280 ho        1 MOL      0.406416
    189 H86        -3.2950   -4.4940    3.1710 ho        1 MOL      0.406416
@<TRIPOS>BOND
     1    1    2 1   
     2    1    4 1   
     3    1    5 1   
     4    1    6 1   
     5    2    3 2   
     6    2    7 1   
     7    7    8 1   
     8    7   15 1   
     9    8    9 1   
    10    8   11 1   
    11    8   16 1   
    12    9   10 2   
    13    9   19 1   
    14   11   12 1   
    15   11   17 1   
    16   11   18 1   
    17   12   13 1   
    18   12   14 1   
    19   19   20 1   
    20   19   27 1   
    21   20   21 1   
    22   20   23 1   
    23   20   28 1   
    24   21   22 2   
    25   21   38 1   
    26   23   24 1   
    27   23   25 1   
    28   23   29 1   
    29   24   26 1   
    30   24   30 1   
    31   24   31 1   
    32   25   32 1   
    33   25   33 1   
    34   25   34 1   
    35   26   35 1   
    36   26   36 1   
    37   26   37 1   
    38   38   39 1   
    39   38   46 1   
    40   39   40 1   
    41   39   42 1   
    42   39   47 1   
    43   40   41 2   
    44   40   50 1   
    45   42   43 1   
    46   42   48 1   
    47   42   49 1   
    48   43   44 1   
    49   43   45 1   
    50   50   51 1   
    51   50   54 1   
    52   51   52 1   
    53   51   55 1   
    54   51   56 1   
    55   52   53 2   
    56   52   57 1   
    57   57   58 1   
    58   57   65 1   
    59   58   59 1   
    60   58   61 1   
    61   58   66 1   
    62   59   60 2   
    63   59   69 1   
    64   61   62 1   
    65   61   67 1   
    66   61   68 1   
    67   62   63 1   
    68   62   64 1   
    69   69   70 1   
    70   69   73 1   
    71   70   71 1   
    72   70   74 1   
    73   70   75 1   
    74   71   72 2   
    75   71   76 1   
    76   76   77 1   
    77   76   85 1   
    78   77   78 1   
    79   77   80 1   
    80   77   86 1   
    81   78   79 2   
    82   78   93 1   
    83   80   81 1   
    84   80   87 1   
    85   80   88 1   
    86   81   82 1   
    87   81   89 1   
    88   81   90 1   
    89   82   83 1   
    90   82   84 2   
    91   83   91 1   
    92   83   92 1   
    93   93   94 1   
    94   93  100 1   
    95   94   95 1   
    96   94   97 1   
    97   94  101 1   
    98   95   96 2   
    99   95  109 1   
   100   97   98 1   
   101   97   99 1   
   102   97  102 1   
   103   98  103 1   
   104   98  104 1   
   105   98  105 1   
   106   99  106 1   
   107   99  107 1   
   108   99  108 1   
   109  109  110 1   
   110  109  117 1   
   111  110  111 1   
   112  110  113 1   
   113  110  118 1   
   114  111  112 2   
   115  111  123 1   
   116  113  114 1   
   117  113  119 1   
   118  113  120 1   
   119  114  115 1   
   120  114  116 2   
   121  115  121 1   
   122  115  122 1   
   123  123  124 1   
   124  123  135 1   
   125  124  125 1   
   126  124  127 1   
   127  124  136 1   
   128  125  126 2   
   129  125  144 1   
   130  127  128 1   
   131  127  137 1   
   132  127  138 1   
   133  128  129 ar  
   134  128  130 ar  
   135  129  131 ar  
   136  129  139 1   
   137  130  132 ar  
   138  130  140 1   
   139  131  133 ar  
   140  131  141 1   
   141  132  133 ar  
   142  132  142 1   
   143  133  134 1   
   144  134  143 1   
   145  144  145 1   
   146  144  153 1   
   147  145  146 1   
   148  145  148 1   
   149  145  154 1   
   150  146  147 2   
   151  146  159 1   
   152  148  149 1   
   153  148  155 1   
   154  148  156 1   
   155  149  150 1   
   156  149  157 1   
   157  149  158 1   
   158  150  151 1   
   159  150  152 1   
   160  159  160 1   
   161  159  168 1   
   162  160  161 1   
   163  160  163 1   
   164  160  169 1   
   165  161  162 2   
   166  161  174 1   
   167  163  164 1   
   168  163  170 1   
   169  163  171 1   
   170  164  165 1   
   171  164  172 1   
   172  164  173 1   
   173  165  166 1   
   174  165  167 1   
   175  174  175 1   
   176  174  179 1   
   177  175  176 1   
   178  175  177 1   
   179  175  178 1   
   180  181  182 1   
   181  181  183 1   
   182  184  185 1   
   183  184  186 1   
   184  187  188 1   
   185  187  189 1   
@<TRIPOS>SUBSTRUCTURE
     1 MOL         1 TEMP              0 ****  ****    0 ROOT
