@<TRIPOS>MOLECULE
MOL
  198   191     1     0     0
SMALL
resp


@<TRIPOS>ATOM
      1 C1         -5.2310   -1.9530    2.0550 c3        1 MOL     -0.625933
      2 C2         -4.1320   -2.4560    1.0390 c         1 MOL      0.969547
      3 O1         -3.5840   -1.6710    0.2380 o         1 MOL     -0.627332
      4 H1         -4.7740   -1.2820    2.7820 hc        1 MOL      0.170454
      5 H2         -6.0130   -1.4220    1.5110 hc        1 MOL      0.170454
      6 H3         -5.6660   -2.8080    2.5740 hc        1 MOL      0.170454
      7 N1         -3.9830   -3.7940    1.0310 n         1 MOL     -0.395743
      8 C3         -3.0550   -4.4820    0.1630 c3        1 MOL     -0.379843
      9 C4         -1.6280   -4.2120    0.6140 c         1 MOL      1.313886
     10 O2         -0.7080   -4.0970   -0.1920 o         1 MOL     -0.673625
     11 C5         -3.3100   -4.4620   -1.3050 c3        1 MOL     -0.653762
     12 C6         -4.7120   -4.9310   -1.4470 c         1 MOL      0.831135
     13 O3         -5.1350   -6.1080   -1.0810 o         1 MOL     -0.660741
     14 O4         -5.5880   -4.1890   -1.9150 o         1 MOL     -0.660741
     15 H4         -4.3790   -4.2750    1.8210 hn        1 MOL      0.173248
     16 H5         -3.1930   -5.5290    0.4320 h1        1 MOL      0.064505
     17 H6         -2.6800   -5.1860   -1.8330 hc        1 MOL      0.232213
     18 H7         -3.1570   -3.4820   -1.7610 hc        1 MOL      0.232213
     19 N2         -1.4740   -4.2120    1.9590 n         1 MOL     -1.014688
     20 C7         -0.2350   -4.0190    2.7510 c3        1 MOL     -0.309882
     21 C8          0.6310   -5.3380    2.7760 c         1 MOL      0.774958
     22 O5          0.1580   -6.4190    2.8690 o         1 MOL     -0.577994
     23 C9         -0.4620   -3.5500    4.2480 c3        1 MOL      0.187581
     24 C10        -1.2510   -2.2490    4.2680 c3        1 MOL      0.037890
     25 C11         0.8470   -3.2230    5.0300 c3        1 MOL     -0.265287
     26 C12        -1.8400   -1.7890    5.5980 c3        1 MOL     -0.265936
     27 H8         -2.2670   -4.4710    2.5180 hn        1 MOL      0.521343
     28 H9          0.3640   -3.2450    2.2680 h1        1 MOL      0.114116
     29 H10        -1.0500   -4.3160    4.7610 hc        1 MOL     -0.019057
     30 H11        -2.1480   -2.4670    3.6840 hc        1 MOL      0.014923
     31 H12        -0.6640   -1.4100    3.8990 hc        1 MOL      0.014923
     32 H13         1.3680   -2.3360    4.6700 hc        1 MOL      0.078876
     33 H14         0.6090   -2.9540    6.0640 hc        1 MOL      0.078876
     34 H15         1.4540   -4.1290    5.0550 hc        1 MOL      0.078876
     35 H16        -2.5510   -0.9960    5.3490 hc        1 MOL      0.058573
     36 H17        -2.3830   -2.5640    6.1400 hc        1 MOL      0.058573
     37 H18        -1.0410   -1.4190    6.2470 hc        1 MOL      0.058573
     38 N3          2.0270   -5.2150    2.6800 n         1 MOL     -0.550825
     39 C13         2.7060   -3.9950    2.2140 c3        1 MOL     -0.018086
     40 C14         2.9370   -3.8490    0.7100 c         1 MOL      0.440615
     41 O6          3.3290   -2.7560    0.2540 o         1 MOL     -0.603463
     42 C15         4.1170   -3.9640    2.9190 c3        1 MOL     -0.246438
     43 C16         4.9360   -5.2610    2.9530 c         1 MOL      0.724784
     44 O7          4.7710   -6.0870    2.0740 o         1 MOL     -0.687939
     45 O8          5.9630   -5.2760    3.6850 o         1 MOL     -0.687939
     46 H19         2.5730   -6.0390    2.8830 hn        1 MOL      0.287893
     47 H20         2.2150   -3.1180    2.6350 h1        1 MOL      0.126341
     48 H21         3.9990   -3.5160    3.9100 hc        1 MOL      0.062656
     49 H22         4.7650   -3.2230    2.4620 hc        1 MOL      0.062656
     50 N4          2.6440   -4.8310   -0.1780 n         1 MOL      0.026896
     51 C17         3.0180   -4.8260   -1.6400 c3        1 MOL     -0.364341
     52 C18         4.4610   -4.5080   -1.9620 c         1 MOL      0.732520
     53 O9          5.3030   -5.3130   -2.0170 o         1 MOL     -0.602318
     54 H23         2.1950   -5.6730    0.1400 hn        1 MOL      0.176064
     55 H24         2.3510   -4.0590   -2.0250 h1        1 MOL      0.110085
     56 H25         2.8100   -5.8290   -2.0110 h1        1 MOL      0.110085
     57 N5          4.8720   -3.2810   -2.1870 n         1 MOL     -0.449554
     58 C19         6.0860   -2.8980   -2.9260 c3        1 MOL      0.014800
     59 C20         7.1630   -2.2850   -1.9990 c         1 MOL      0.380867
     60 O10         8.2960   -1.8960   -2.4380 o         1 MOL     -0.543608
     61 C21         5.6780   -2.0660   -4.1330 c3        1 MOL     -0.185830
     62 C22         4.6720   -0.9500   -3.8630 c         1 MOL      0.708414
     63 O11         3.7790   -0.8290   -4.6850 o         1 MOL     -0.692004
     64 O12         4.6130   -0.4370   -2.7520 o         1 MOL     -0.692004
     65 H26         4.1940   -2.5590   -2.0140 hn        1 MOL      0.320759
     66 H27         6.5650   -3.8050   -3.3050 h1        1 MOL      0.112931
     67 H28         5.2440   -2.7160   -4.8850 hc        1 MOL      0.034717
     68 H29         6.5370   -1.6560   -4.6560 hc        1 MOL      0.034717
     69 N6          6.9300   -2.3340   -0.6580 n         1 MOL     -0.163522
     70 C23         7.7700   -1.8090    0.3860 c3        1 MOL     -0.366004
     71 C24         7.8970   -0.2780    0.2520 c         1 MOL      0.474694
     72 O13         8.8570    0.2710    0.8180 o         1 MOL     -0.531952
     73 H30         6.1050   -2.8540   -0.3920 hn        1 MOL      0.273930
     74 H31         8.7980   -2.1550    0.2350 h1        1 MOL      0.176415
     75 H32         7.4350   -2.2150    1.3460 h1        1 MOL      0.176415
     76 N7          7.0200    0.4260   -0.5550 n         1 MOL      0.008426
     77 C25         6.9160    1.8530   -0.6830 c3        1 MOL      0.188344
     78 C26         6.4170    2.5670    0.6500 c         1 MOL      0.448173
     79 O14         6.8940    3.6540    1.0240 o         1 MOL     -0.517703
     80 C27         8.1030    2.4260   -1.3530 c3        1 MOL     -0.062809
     81 C28         8.5010    1.7680   -2.7240 c3        1 MOL     -0.265908
     82 C29         9.7180    2.4370   -3.4270 c         1 MOL      0.741419
     83 N8          9.9970    2.3000   -4.6760 n         1 MOL     -0.817958
     84 O15        10.5260    3.1310   -2.7870 o         1 MOL     -0.602486
     85 H33         6.2980   -0.1030   -1.0340 hn        1 MOL      0.011837
     86 H34         6.0690    2.0910   -1.3300 h1        1 MOL      0.030001
     87 H35         8.9100    2.4400   -0.6180 hc        1 MOL      0.024878
     88 H36         7.8310    3.4510   -1.5840 hc        1 MOL      0.024878
     89 H37         7.5590    1.6860   -3.2760 hc        1 MOL      0.078469
     90 H38         8.9260    0.7740   -2.6080 hc        1 MOL      0.078469
     91 H39         9.3690    1.7070   -5.1870 hn        1 MOL      0.353022
     92 H40        10.7510    2.7980   -5.1210 hn        1 MOL      0.353022
     93 N9          5.5110    1.8880    1.4030 n         1 MOL     -0.508939
     94 C30         4.9830    2.2180    2.7540 c3        1 MOL      0.063009
     95 C31         3.4690    2.4210    2.8720 c         1 MOL      0.575463
     96 O16         3.0670    3.1520    3.7800 o         1 MOL     -0.571225
     97 C32         5.4950    1.1280    3.8180 c3        1 MOL      0.166795
     98 C33         4.8100   -0.3000    3.6440 c3        1 MOL     -0.230038
     99 C34         7.0410    0.9520    3.9580 c3        1 MOL     -0.230038
    100 H41         5.2020    1.0300    0.9610 hn        1 MOL      0.249779
    101 H42         5.4200    3.1810    3.0520 h1        1 MOL      0.102649
    102 H43         5.1680    1.4890    4.7900 hc        1 MOL     -0.038477
    103 H44         3.7200   -0.2090    3.6570 hc        1 MOL      0.055879
    104 H45         4.9920   -0.5590    2.6010 hc        1 MOL      0.055879
    105 H46         5.0770   -1.0790    4.3510 hc        1 MOL      0.055879
    106 H47         7.4010   -0.0240    4.2860 hc        1 MOL      0.055879
    107 H48         7.4480    1.0820    2.9550 hc        1 MOL      0.055879
    108 H49         7.3340    1.7400    4.6590 hc        1 MOL      0.055879
    109 N10         2.6820    1.9090    1.9240 n         1 MOL     -0.442824
    110 C35         1.2860    1.9880    1.7340 c3        1 MOL      0.150485
    111 C36         0.9450    3.1530    0.7860 c         1 MOL      0.531340
    112 O17         1.8380    3.7930    0.2690 o         1 MOL     -0.504440
    113 C37         0.8450    0.6260    1.2270 c3        1 MOL      0.062494
    114 C38        -0.6440    0.2860    1.3830 c         1 MOL      0.487240
    115 N11        -1.1180   -0.6150    0.5900 n         1 MOL     -0.640751
    116 O18        -1.4020    0.8250    2.2020 o         1 MOL     -0.580444
    117 H50         3.0980    1.2380    1.2940 hn        1 MOL      0.245575
    118 H51         0.8220    2.1870    2.7000 h1        1 MOL      0.031807
    119 H52         1.4040   -0.1810    1.6920 hc        1 MOL      0.016405
    120 H53         1.0930    0.5990    0.1700 hc        1 MOL      0.016405
    121 H54        -0.6030   -1.1190   -0.1130 hn        1 MOL      0.334533
    122 H55        -2.1200   -0.6420    0.6960 hn        1 MOL      0.334533
    123 N12        -0.3140    3.3390    0.4420 n         1 MOL     -0.570286
    124 C39        -0.8880    4.3050   -0.5080 c3        1 MOL      0.497268
    125 C40        -2.0640    5.0600    0.0690 c         1 MOL      0.359385
    126 O19        -2.7380    4.5440    0.9230 o         1 MOL     -0.524262
    127 C41        -1.2560    3.5950   -1.8190 c3        1 MOL     -0.174424
    128 C42        -0.0780    3.0630   -2.5730 ca        1 MOL      0.039340
    129 C43         0.2900    1.7290   -2.5320 ca        1 MOL     -0.203758
    130 C44         0.6640    4.0090   -3.3080 ca        1 MOL     -0.203758
    131 C45         1.5210    1.3160   -3.0570 ca        1 MOL     -0.203725
    132 C46         1.8350    3.5740   -3.9380 ca        1 MOL     -0.203725
    133 C47         2.3310    2.2150   -3.7700 ca        1 MOL      0.332112
    134 O20         3.5720    1.8430   -4.2130 oh        1 MOL     -0.553369
    135 H56        -1.0000    2.9230    1.0660 hn        1 MOL      0.280053
    136 H57        -0.0930    5.0030   -0.7880 h1        1 MOL     -0.036176
    137 H58        -1.6950    4.3030   -2.5370 hc        1 MOL      0.039498
    138 H59        -1.9350    2.7910   -1.5240 hc        1 MOL      0.039498
    139 H60        -0.2200    1.0400   -1.8690 ha        1 MOL      0.123387
    140 H61         0.3090    5.0040   -3.5040 ha        1 MOL      0.123387
    141 H62         1.8620    0.2990   -2.8870 ha        1 MOL      0.121883
    142 H63         2.3350    4.2310   -4.6330 ha        1 MOL      0.121883
    143 H64         3.7530    0.9670   -3.8730 ho        1 MOL      0.437625
    144 N13        -2.3140    6.2500   -0.5390 n         1 MOL     -0.570407
    145 C48        -3.4150    7.1700   -0.1210 c3        1 MOL      0.314811
    146 C49        -4.5490    7.3870   -1.2120 c         1 MOL      0.425158
    147 O21        -4.5060    8.2880   -2.0430 o         1 MOL     -0.566693
    148 C50        -2.7510    8.4870    0.2510 c3        1 MOL     -0.165890
    149 C51        -2.0790    8.5930    1.6130 c3        1 MOL     -0.109516
    150 C52        -1.9800   10.0160    2.1540 c         1 MOL      0.755111
    151 O22        -2.1420   10.1810    3.3390 o         1 MOL     -0.648481
    152 O23        -1.7010   11.0060    1.3640 o         1 MOL     -0.648481
    153 H65        -1.6260    6.5540   -1.2190 hn        1 MOL      0.322994
    154 H66        -3.8340    6.7970    0.8090 h1        1 MOL      0.120364
    155 H67        -3.6390    9.1320    0.2740 hc        1 MOL      0.038228
    156 H68        -2.0480    8.7840   -0.5320 hc        1 MOL      0.038228
    157 H69        -1.0370    8.2580    1.5230 hc        1 MOL      0.019700
    158 H70        -2.6970    7.9590    2.2470 hc        1 MOL      0.019700
    159 N14        -5.5650    6.5480   -1.2730 n         1 MOL     -0.305186
    160 C53        -5.6560    5.3020   -0.5460 c3        1 MOL     -0.240341
    161 C54        -6.0420    5.5700    0.9460 c         1 MOL      0.482509
    162 O24        -6.1200    6.7080    1.4040 o         1 MOL     -0.527435
    163 C55        -6.7140    4.4170   -1.2020 c3        1 MOL      0.151346
    164 C56        -8.2380    4.7510   -0.9070 c3        1 MOL     -0.278319
    165 C57        -9.1010    3.7150   -1.6950 c         1 MOL      0.552793
    166 O25        -9.3360    4.0390   -2.9300 o         1 MOL     -0.620915
    167 O26        -9.5170    2.5890   -1.2200 o         1 MOL     -0.620915
    168 H71        -6.3310    6.6770   -1.9180 hn        1 MOL      0.288442
    169 H72        -4.7310    4.7220   -0.5360 h1        1 MOL      0.094377
    170 H73        -6.5010    3.3940   -0.8690 hc        1 MOL      0.020074
    171 H74        -6.5390    4.4070   -2.2820 hc        1 MOL      0.020074
    172 H75        -8.4170    5.7820   -1.2180 hc        1 MOL      0.053833
    173 H76        -8.4180    4.6910    0.1650 hc        1 MOL      0.053833
    174 N15        -6.3620    4.5010    1.6760 n         1 MOL     -0.195260
    175 C58        -6.7380    4.4450    3.1460 c3        1 MOL     -0.122550
    176 H77        -7.0400    5.4380    3.4810 h1        1 MOL      0.071696
    177 H78        -7.5670    3.7500    3.2830 h1        1 MOL      0.071696
    178 H79        -5.8800    4.1110    3.7290 h1        1 MOL      0.071696
    179 H80        -6.3570    3.6520    1.1390 hn        1 MOL      0.191038
    180 Ca1        -7.5960   -5.8960   -1.3230 Ca        1 MOL      1.682916
    181 O27        -9.3450   -4.2000   -2.4640 oh        1 MOL     -0.843992
    182 H81       -10.2670   -4.2080   -2.7210 ho        1 MOL      0.374346
    183 H82        -9.0510   -3.3080   -2.6530 ho        1 MOL      0.374346
    184 O28        -7.0130   -6.6140   -3.7550 oh        1 MOL     -0.843992
    185 H83        -6.2900   -7.0180   -4.2200 ho        1 MOL      0.374346
    186 H84        -7.6730   -6.4530   -4.4340 ho        1 MOL      0.374346
    187 O29        -7.3550   -8.3770   -0.8690 oh        1 MOL     -0.843992
    188 H85        -7.9460   -9.0810   -0.6020 ho        1 MOL      0.374346
    189 H86        -6.7200   -8.8000   -1.4520 ho        1 MOL      0.374346
    190 O30        -9.6840   -5.3660    0.3990 oh        1 MOL     -0.843992
    191 H87       -10.0470   -4.5220    0.6520 ho        1 MOL      0.374346
    192 H88       -10.4310   -5.9700    0.4250 ho        1 MOL      0.374346
    193 O31        -7.6440   -3.3320   -0.2020 oh        1 MOL     -0.843992
    194 H89        -7.7910   -2.7600    0.5500 ho        1 MOL      0.374346
    195 H90        -7.2320   -2.7720   -0.8580 ho        1 MOL      0.374346
    196 O32        -9.6770   -7.3100   -2.3020 oh        1 MOL     -0.843992
    197 H91       -10.0840   -7.3470   -3.1650 ho        1 MOL      0.374346
    198 H92       -10.2620   -7.8240   -1.7410 ho        1 MOL      0.374346
@<TRIPOS>BOND
     1    1    2 1   
     2    1    4 1   
     3    1    5 1   
     4    1    6 1   
     5    2    3 2   
     6    2    7 1   
     7    7    8 1   
     8    7   15 1   
     9    8    9 1   
    10    8   11 1   
    11    8   16 1   
    12    9   10 2   
    13    9   19 1   
    14   11   12 1   
    15   11   17 1   
    16   11   18 1   
    17   12   13 1   
    18   12   14 1   
    19   19   20 1   
    20   19   27 1   
    21   20   21 1   
    22   20   23 1   
    23   20   28 1   
    24   21   22 2   
    25   21   38 1   
    26   23   24 1   
    27   23   25 1   
    28   23   29 1   
    29   24   26 1   
    30   24   30 1   
    31   24   31 1   
    32   25   32 1   
    33   25   33 1   
    34   25   34 1   
    35   26   35 1   
    36   26   36 1   
    37   26   37 1   
    38   38   39 1   
    39   38   46 1   
    40   39   40 1   
    41   39   42 1   
    42   39   47 1   
    43   40   41 2   
    44   40   50 1   
    45   42   43 1   
    46   42   48 1   
    47   42   49 1   
    48   43   44 1   
    49   43   45 1   
    50   50   51 1   
    51   50   54 1   
    52   51   52 1   
    53   51   55 1   
    54   51   56 1   
    55   52   53 2   
    56   52   57 1   
    57   57   58 1   
    58   57   65 1   
    59   58   59 1   
    60   58   61 1   
    61   58   66 1   
    62   59   60 2   
    63   59   69 1   
    64   61   62 1   
    65   61   67 1   
    66   61   68 1   
    67   62   63 1   
    68   62   64 1   
    69   69   70 1   
    70   69   73 1   
    71   70   71 1   
    72   70   74 1   
    73   70   75 1   
    74   71   72 2   
    75   71   76 1   
    76   76   77 1   
    77   76   85 1   
    78   77   78 1   
    79   77   80 1   
    80   77   86 1   
    81   78   79 2   
    82   78   93 1   
    83   80   81 1   
    84   80   87 1   
    85   80   88 1   
    86   81   82 1   
    87   81   89 1   
    88   81   90 1   
    89   82   83 1   
    90   82   84 2   
    91   83   91 1   
    92   83   92 1   
    93   93   94 1   
    94   93  100 1   
    95   94   95 1   
    96   94   97 1   
    97   94  101 1   
    98   95   96 2   
    99   95  109 1   
   100   97   98 1   
   101   97   99 1   
   102   97  102 1   
   103   98  103 1   
   104   98  104 1   
   105   98  105 1   
   106   99  106 1   
   107   99  107 1   
   108   99  108 1   
   109  109  110 1   
   110  109  117 1   
   111  110  111 1   
   112  110  113 1   
   113  110  118 1   
   114  111  112 2   
   115  111  123 1   
   116  113  114 1   
   117  113  119 1   
   118  113  120 1   
   119  114  115 1   
   120  114  116 2   
   121  115  121 1   
   122  115  122 1   
   123  123  124 1   
   124  123  135 1   
   125  124  125 1   
   126  124  127 1   
   127  124  136 1   
   128  125  126 2   
   129  125  144 1   
   130  127  128 1   
   131  127  137 1   
   132  127  138 1   
   133  128  129 ar  
   134  128  130 ar  
   135  129  131 ar  
   136  129  139 1   
   137  130  132 ar  
   138  130  140 1   
   139  131  133 ar  
   140  131  141 1   
   141  132  133 ar  
   142  132  142 1   
   143  133  134 1   
   144  134  143 1   
   145  144  145 1   
   146  144  153 1   
   147  145  146 1   
   148  145  148 1   
   149  145  154 1   
   150  146  147 2   
   151  146  159 1   
   152  148  149 1   
   153  148  155 1   
   154  148  156 1   
   155  149  150 1   
   156  149  157 1   
   157  149  158 1   
   158  150  151 1   
   159  150  152 1   
   160  159  160 1   
   161  159  168 1   
   162  160  161 1   
   163  160  163 1   
   164  160  169 1   
   165  161  162 2   
   166  161  174 1   
   167  163  164 1   
   168  163  170 1   
   169  163  171 1   
   170  164  165 1   
   171  164  172 1   
   172  164  173 1   
   173  165  166 1   
   174  165  167 1   
   175  174  175 1   
   176  174  179 1   
   177  175  176 1   
   178  175  177 1   
   179  175  178 1   
   180  181  182 1   
   181  181  183 1   
   182  184  185 1   
   183  184  186 1   
   184  187  188 1   
   185  187  189 1   
   186  190  191 1   
   187  190  192 1   
   188  193  194 1   
   189  193  195 1   
   190  196  197 1   
   191  196  198 1   
@<TRIPOS>SUBSTRUCTURE
     1 MOL         1 TEMP              0 ****  ****    0 ROOT
