@<TRIPOS>MOLECULE
MOL
  178   175     1     0     0
SMALL
resp


@<TRIPOS>ATOM
      1 C1          3.2340   -1.8230    4.9230 c3        1 MOL     -0.334563
      2 C2          4.5470   -1.1870    4.4260 c         1 MOL      0.652146
      3 O1          5.0630   -0.1860    4.9510 o         1 MOL     -0.612053
      4 H1          3.1330   -1.6540    5.9950 hc        1 MOL      0.091001
      5 H2          2.3900   -1.3700    4.4030 hc        1 MOL      0.091001
      6 H3          3.2510   -2.8950    4.7250 hc        1 MOL      0.091001
      7 N1          5.1450   -1.7720    3.3670 n         1 MOL     -0.394091
      8 C3          6.3150   -1.3820    2.6460 c3        1 MOL      0.212198
      9 C4          6.2300   -1.5980    1.1290 c         1 MOL      0.333294
     10 O2          5.4110   -2.3370    0.6220 o         1 MOL     -0.330925
     11 C5          7.5850   -2.1040    3.1900 c3        1 MOL     -0.471204
     12 C6          7.7130   -3.6340    3.0500 c         1 MOL      0.814568
     13 O3          8.7450   -4.1360    3.5860 o         1 MOL     -0.733591
     14 O4          6.8450   -4.3720    2.5560 o         1 MOL     -0.733591
     15 H4          4.5220   -2.4200    2.9120 hn        1 MOL      0.205806
     16 H5          6.3390   -0.3050    2.7620 h1        1 MOL      0.018926
     17 H6          7.5930   -1.9650    4.2750 hc        1 MOL      0.102961
     18 H7          8.4590   -1.7340    2.6600 hc        1 MOL      0.102961
     19 N2          7.0710   -0.7870    0.4190 n         1 MOL     -0.408508
     20 C7          7.0500   -0.3580   -0.9710 c3        1 MOL      0.478695
     21 C8          5.8520    0.5590   -1.4210 c         1 MOL      0.335218
     22 O5          5.2740    1.1960   -0.6020 o         1 MOL     -0.561506
     23 C9          8.4470    0.0230   -1.3580 c3        1 MOL     -0.355088
     24 H8          7.4820   -0.1230    1.0560 hn        1 MOL      0.242607
     25 H9          6.7880   -1.3170   -1.4310 h1        1 MOL     -0.043160
     26 H10         8.4880    0.2440   -2.4260 hc        1 MOL      0.075385
     27 H11         8.6900    0.8940   -0.7590 hc        1 MOL      0.075385
     28 H12         9.0900   -0.8010   -1.0380 hc        1 MOL      0.075385
     29 N3          5.4080    0.3620   -2.6520 n         1 MOL     -0.683719
     30 C10         4.1680    0.9530   -3.3200 c3        1 MOL      0.161956
     31 C11         4.2230    2.4150   -3.8220 c         1 MOL      0.622432
     32 O6          3.6680    2.7350   -4.8690 o         1 MOL     -0.526086
     33 C12         3.6290   -0.0330   -4.4050 c3        1 MOL     -0.429777
     34 C13         3.4750   -1.5110   -3.9500 c         1 MOL      0.864693
     35 O7          3.7680   -2.3690   -4.8220 o         1 MOL     -0.706334
     36 O8          3.1180   -1.8240   -2.7770 o         1 MOL     -0.706334
     37 H13         6.0570   -0.2460   -3.1400 hn        1 MOL      0.365940
     38 H14         3.4060    0.9740   -2.5400 h1        1 MOL      0.059834
     39 H15         4.1800    0.1900   -5.3190 hc        1 MOL      0.096440
     40 H16         2.6160    0.3000   -4.6220 hc        1 MOL      0.096440
     41 N4          5.0060    3.2120   -3.1500 n         1 MOL     -0.369276
     42 C14         5.1340    4.6510   -3.3990 c3        1 MOL     -0.266626
     43 C15         3.8220    5.3690   -3.5260 c         1 MOL      0.598874
     44 O9          3.6710    6.2300   -4.3720 o         1 MOL     -0.528986
     45 H17         5.5410    2.8310   -2.3780 hn        1 MOL      0.338279
     46 H18         5.6520    4.7490   -4.3500 h1        1 MOL      0.122593
     47 H19         5.7410    5.0770   -2.6050 h1        1 MOL      0.122593
     48 N5          2.8910    5.0490   -2.6460 n         1 MOL     -0.433703
     49 C16         1.5270    5.6100   -2.6440 c3        1 MOL      0.026571
     50 C17         0.8360    5.6880   -1.3100 c         1 MOL      0.550382
     51 O10         0.7070    4.6750   -0.6340 o         1 MOL     -0.479746
     52 C18         0.6600    5.0250   -3.7880 c3        1 MOL     -0.234238
     53 C19        -0.6940    5.7480   -3.7470 c         1 MOL      0.576761
     54 N6         -1.6330    5.1830   -3.0090 n         1 MOL     -0.677085
     55 O11        -0.9870    6.6900   -4.5060 o         1 MOL     -0.571127
     56 H20         3.0690    4.2150   -2.0870 hn        1 MOL      0.253437
     57 H21         1.7140    6.6130   -3.0200 h1        1 MOL      0.046255
     58 H22         0.4880    3.9520   -3.7060 hc        1 MOL      0.123355
     59 H23         1.1450    5.3570   -4.6950 hc        1 MOL      0.123355
     60 H24        -1.3260    4.5810   -2.2570 hn        1 MOL      0.337455
     61 H25        -2.5280    5.6460   -2.9690 hn        1 MOL      0.337455
     62 N7          0.3650    6.8210   -0.8480 n         1 MOL     -0.487469
     63 C20        -0.1640    6.9630    0.5060 c3        1 MOL     -0.037709
     64 C21        -1.4330    6.2070    0.8510 c         1 MOL      0.517367
     65 O12        -2.0920    5.5680    0.0490 o         1 MOL     -0.460462
     66 H26         0.5200    7.6810   -1.3660 hn        1 MOL      0.314016
     67 H27        -0.3450    8.0400    0.6170 h1        1 MOL      0.080025
     68 H28         0.6070    6.7380    1.2340 h1        1 MOL      0.080025
     69 N8         -1.7780    6.3400    2.1570 n         1 MOL     -0.334006
     70 C22        -3.1480    6.0110    2.6230 c3        1 MOL     -0.397179
     71 C23        -3.4110    4.6120    3.0260 c         1 MOL      0.624589
     72 O13        -4.6110    4.2640    3.2350 o         1 MOL     -0.586439
     73 C24        -3.5470    6.9100    3.9030 c3        1 MOL      0.464192
     74 C25        -2.5490    6.7020    4.9500 c3        1 MOL     -0.369245
     75 O14        -3.6740    8.3140    3.5950 oh        1 MOL     -0.607293
     76 H29        -1.1730    6.8490    2.8000 hn        1 MOL      0.220396
     77 H30        -3.7950    6.3270    1.8010 h1        1 MOL      0.183467
     78 H31        -4.5660    6.6410    4.2090 h1        1 MOL      0.059947
     79 H32        -2.7530    8.5360    3.4720 ho        1 MOL      0.360906
     80 H33        -2.9810    6.2620    5.8490 hc        1 MOL      0.089337
     81 H34        -1.7260    5.9940    4.8130 hc        1 MOL      0.089337
     82 H35        -2.1540    7.6890    5.2020 hc        1 MOL      0.089337
     83 N9         -2.3730    3.8010    3.1650 n         1 MOL     -0.343091
     84 C26        -2.3850    2.2970    3.4500 c3        1 MOL     -0.090115
     85 C27        -1.5360    1.5310    2.4480 c         1 MOL      0.590027
     86 O15        -0.3160    1.6950    2.3090 o         1 MOL     -0.514457
     87 C28        -1.9000    2.0220    4.9170 c3        1 MOL      0.055898
     88 C29        -2.8050    2.7370    5.9340 c3        1 MOL      0.018808
     89 C30        -1.9850    0.5530    5.2690 c3        1 MOL     -0.181680
     90 C31        -4.2800    2.3020    5.9240 c3        1 MOL     -0.123741
     91 H36        -1.4410    4.1780    3.0580 hn        1 MOL      0.231245
     92 H37        -3.3950    1.9010    3.3890 h1        1 MOL      0.137135
     93 H38        -0.8450    2.2560    4.9740 hc        1 MOL      0.051163
     94 H39        -2.7540    3.8150    5.7950 hc        1 MOL     -0.002832
     95 H40        -2.4030    2.6000    6.9410 hc        1 MOL     -0.002832
     96 H41        -1.4900    0.4160    6.2290 hc        1 MOL      0.052785
     97 H42        -2.9420    0.0340    5.1530 hc        1 MOL      0.052785
     98 H43        -1.3230    0.0060    4.5940 hc        1 MOL      0.052785
     99 H44        -4.8400    3.0320    6.5180 hc        1 MOL      0.029923
    100 H45        -4.7070    2.2570    4.9340 hc        1 MOL      0.029923
    101 H46        -4.4390    1.3040    6.3580 hc        1 MOL      0.029923
    102 N10        -2.1730    0.5820    1.7600 n         1 MOL     -0.695697
    103 C32        -1.5820   -0.3180    0.7730 c3        1 MOL      0.608876
    104 C33        -2.4850   -0.8530   -0.3390 c         1 MOL      0.311648
    105 O16        -2.2570   -1.8830   -0.9680 o         1 MOL     -0.343213
    106 C34        -0.8250   -1.4150    1.4970 c3        1 MOL     -0.255107
    107 C35         0.3340   -2.0590    0.7330 c         1 MOL      0.667323
    108 O17         0.3960   -1.8550   -0.5040 o         1 MOL     -0.703867
    109 O18         1.2550   -2.6720    1.3080 o         1 MOL     -0.703867
    110 H47        -3.1620    0.5640    1.9310 hn        1 MOL      0.293197
    111 H48        -0.8770    0.3080    0.2080 h1        1 MOL     -0.011253
    112 H49        -1.6210   -2.1320    1.7270 hc        1 MOL      0.044444
    113 H50        -0.3210   -1.0860    2.4070 hc        1 MOL      0.044444
    114 N11        -3.5920   -0.1370   -0.5540 n         1 MOL     -0.524943
    115 C36        -4.6970   -0.7570   -1.3750 c3        1 MOL      0.210404
    116 C37        -5.1290   -2.1570   -0.8790 c         1 MOL      0.268853
    117 O19        -5.2190   -2.4150    0.2960 o         1 MOL     -0.471184
    118 C38        -5.9230    0.2300   -1.3870 c3        1 MOL     -0.184552
    119 C39        -7.1740   -0.2360   -2.1000 ca        1 MOL      0.063781
    120 C40        -8.1640   -1.0310   -1.4920 ca        1 MOL     -0.163284
    121 C41        -7.2760    0.0350   -3.4880 ca        1 MOL     -0.163284
    122 C42        -9.1630   -1.6650   -2.2460 ca        1 MOL     -0.119517
    123 C43        -8.2750   -0.5990   -4.2410 ca        1 MOL     -0.119517
    124 C44        -9.1870   -1.4460   -3.6150 ca        1 MOL     -0.084906
    125 H51        -3.8560    0.6340    0.0290 hn        1 MOL      0.265090
    126 H52        -4.3110   -0.8010   -2.3920 h1        1 MOL      0.068190
    127 H53        -5.5930    1.1230   -1.9100 hc        1 MOL      0.083695
    128 H54        -6.1910    0.6060   -0.3950 hc        1 MOL      0.083695
    129 H55        -8.1030   -1.0670   -0.4130 ha        1 MOL      0.122682
    130 H56        -6.4630    0.5710   -3.9540 ha        1 MOL      0.122682
    131 H57        -9.9840   -2.1890   -1.7780 ha        1 MOL      0.113381
    132 H58        -8.3800   -0.5160   -5.3170 ha        1 MOL      0.113381
    133 H59       -10.0120   -1.8900   -4.1370 ha        1 MOL      0.090461
    134 N12        -5.2650   -3.1400   -1.8150 n         1 MOL      0.031400
    135 C45        -5.7970   -4.5040   -1.5420 c3        1 MOL      0.006345
    136 C46        -4.9460   -5.3690   -0.5600 c         1 MOL      0.278168
    137 O20        -5.4140   -6.4340   -0.0830 o         1 MOL     -0.520487
    138 C47        -5.8970   -5.2360   -2.9140 c3        1 MOL     -0.028091
    139 C48        -4.9720   -4.4110   -3.8140 c3        1 MOL     -0.051496
    140 C49        -5.1450   -3.0200   -3.2490 c3        1 MOL     -0.001976
    141 H60        -6.7790   -4.4960   -1.0680 h1        1 MOL      0.052597
    142 H61        -5.5470   -6.2770   -2.8900 hc        1 MOL      0.030891
    143 H62        -6.9090   -5.2630   -3.3040 hc        1 MOL      0.030891
    144 H63        -3.9520   -4.7530   -3.6670 hc        1 MOL      0.041310
    145 H64        -5.3410   -4.4770   -4.8400 hc        1 MOL      0.041310
    146 H65        -4.2830   -2.4090   -3.5200 h1        1 MOL      0.013143
    147 H66        -6.0270   -2.5580   -3.6840 h1        1 MOL      0.013143
    148 N13        -3.6750   -4.9440   -0.4170 n         1 MOL     -0.089807
    149 C50        -2.7080   -5.6440    0.3950 c3        1 MOL     -0.213497
    150 C51        -3.0110   -5.4970    1.8750 c         1 MOL      0.513871
    151 O21        -2.5290   -6.3550    2.5990 o         1 MOL     -0.544297
    152 C52        -1.2740   -5.0170    0.1340 c3        1 MOL      0.141601
    153 C53        -0.6160   -5.4890   -1.1900 c3        1 MOL     -0.115213
    154 C54         0.7760   -4.8640   -1.4170 c         1 MOL      0.705396
    155 O22         1.6420   -4.9030   -0.5030 o         1 MOL     -0.739005
    156 O23         1.0650   -4.3730   -2.5260 o         1 MOL     -0.739005
    157 H67        -3.4480   -4.1520   -0.9920 hn        1 MOL      0.159370
    158 H68        -2.6910   -6.7160    0.2100 h1        1 MOL      0.129568
    159 H69        -0.5720   -5.3050    0.9220 hc        1 MOL     -0.009989
    160 H70        -1.3710   -3.9310    0.1400 hc        1 MOL     -0.009989
    161 H71        -1.2240   -5.3350   -2.0800 hc        1 MOL      0.003228
    162 H72        -0.3860   -6.5450   -1.0390 hc        1 MOL      0.003228
    163 N14        -3.9430   -4.6260    2.3000 n         1 MOL     -0.161858
    164 C55        -4.1980   -4.4520    3.7010 c3        1 MOL     -0.319391
    165 H73        -4.6700   -5.3510    4.0990 h1        1 MOL      0.108220
    166 H74        -3.2570   -4.2760    4.2230 h1        1 MOL      0.108220
    167 H75        -4.8600   -3.5990    3.8470 h1        1 MOL      0.108220
    168 H76        -4.2940   -3.9640    1.6160 hn        1 MOL      0.193977
    169 Ca1         3.0800   -2.9070   -0.4680 Ca        1 MOL      1.766604
    170 O24         3.0740   -0.1810    0.1530 oh        1 MOL     -0.963012
    171 H77         2.4210    0.5190    0.0970 ho        1 MOL      0.453548
    172 H78         3.9120    0.2780    0.1960 ho        1 MOL      0.453548
    173 O25         5.2780   -4.1470   -1.5650 oh        1 MOL     -0.963012
    174 H79         5.5640   -4.3870   -2.4380 ho        1 MOL      0.453548
    175 H80         5.9390   -4.5290   -0.9800 ho        1 MOL      0.453548
    176 O26         4.2400   -4.3260    2.0330 oh        1 MOL     -0.963012
    177 H81         4.0230   -4.6410    2.9100 ho        1 MOL      0.453548
    178 H82         5.1830   -4.4670    1.9610 ho        1 MOL      0.453548
@<TRIPOS>BOND
     1    1    2 1   
     2    1    4 1   
     3    1    5 1   
     4    1    6 1   
     5    2    3 2   
     6    2    7 1   
     7    7    8 1   
     8    7   15 1   
     9    8    9 1   
    10    8   11 1   
    11    8   16 1   
    12    9   10 2   
    13    9   19 1   
    14   11   12 1   
    15   11   17 1   
    16   11   18 1   
    17   12   13 1   
    18   12   14 1   
    19   19   20 1   
    20   19   24 1   
    21   20   21 1   
    22   20   23 1   
    23   20   25 1   
    24   21   22 2   
    25   21   29 1   
    26   23   26 1   
    27   23   27 1   
    28   23   28 1   
    29   29   30 1   
    30   29   37 1   
    31   30   31 1   
    32   30   33 1   
    33   30   38 1   
    34   31   32 2   
    35   31   41 1   
    36   33   34 1   
    37   33   39 1   
    38   33   40 1   
    39   34   35 1   
    40   34   36 1   
    41   41   42 1   
    42   41   45 1   
    43   42   43 1   
    44   42   46 1   
    45   42   47 1   
    46   43   44 2   
    47   43   48 1   
    48   48   49 1   
    49   48   56 1   
    50   49   50 1   
    51   49   52 1   
    52   49   57 1   
    53   50   51 2   
    54   50   62 1   
    55   52   53 1   
    56   52   58 1   
    57   52   59 1   
    58   53   54 1   
    59   53   55 2   
    60   54   60 1   
    61   54   61 1   
    62   62   63 1   
    63   62   66 1   
    64   63   64 1   
    65   63   67 1   
    66   63   68 1   
    67   64   65 2   
    68   64   69 1   
    69   69   70 1   
    70   69   76 1   
    71   70   71 1   
    72   70   73 1   
    73   70   77 1   
    74   71   72 2   
    75   71   83 1   
    76   73   74 1   
    77   73   75 1   
    78   73   78 1   
    79   74   80 1   
    80   74   81 1   
    81   74   82 1   
    82   75   79 1   
    83   83   84 1   
    84   83   91 1   
    85   84   85 1   
    86   84   87 1   
    87   84   92 1   
    88   85   86 2   
    89   85  102 1   
    90   87   88 1   
    91   87   89 1   
    92   87   93 1   
    93   88   90 1   
    94   88   94 1   
    95   88   95 1   
    96   89   96 1   
    97   89   97 1   
    98   89   98 1   
    99   90   99 1   
   100   90  100 1   
   101   90  101 1   
   102  102  103 1   
   103  102  110 1   
   104  103  104 1   
   105  103  106 1   
   106  103  111 1   
   107  104  105 2   
   108  104  114 1   
   109  106  107 1   
   110  106  112 1   
   111  106  113 1   
   112  107  108 1   
   113  107  109 1   
   114  114  115 1   
   115  114  125 1   
   116  115  116 1   
   117  115  118 1   
   118  115  126 1   
   119  116  117 2   
   120  116  134 1   
   121  118  119 1   
   122  118  127 1   
   123  118  128 1   
   124  119  120 ar  
   125  119  121 ar  
   126  120  122 ar  
   127  120  129 1   
   128  121  123 ar  
   129  121  130 1   
   130  122  124 ar  
   131  122  131 1   
   132  123  124 ar  
   133  123  132 1   
   134  124  133 1   
   135  134  135 1   
   136  134  140 1   
   137  135  136 1   
   138  135  138 1   
   139  135  141 1   
   140  136  137 2   
   141  136  148 1   
   142  138  139 1   
   143  138  142 1   
   144  138  143 1   
   145  139  140 1   
   146  139  144 1   
   147  139  145 1   
   148  140  146 1   
   149  140  147 1   
   150  148  149 1   
   151  148  157 1   
   152  149  150 1   
   153  149  152 1   
   154  149  158 1   
   155  150  151 2   
   156  150  163 1   
   157  152  153 1   
   158  152  159 1   
   159  152  160 1   
   160  153  154 1   
   161  153  161 1   
   162  153  162 1   
   163  154  155 1   
   164  154  156 1   
   165  163  164 1   
   166  163  168 1   
   167  164  165 1   
   168  164  166 1   
   169  164  167 1   
   170  170  171 1   
   171  170  172 1   
   172  173  174 1   
   173  173  175 1   
   174  176  177 1   
   175  176  178 1   
@<TRIPOS>SUBSTRUCTURE
     1 MOL         1 TEMP              0 ****  ****    0 ROOT
