@<TRIPOS>MOLECULE
MOL
  178   175     1     0     0
SMALL
resp


@<TRIPOS>ATOM
      1 C1          3.6770   -1.0120    4.6180 c3        1 MOL     -0.537233
      2 C2          4.8790   -0.1020    4.3080 c         1 MOL      0.642181
      3 O1          5.1520    0.9530    4.9000 o         1 MOL     -0.620008
      4 H1          3.6460   -1.8300    3.8970 hc        1 MOL      0.145477
      5 H2          3.7790   -1.4200    5.6240 hc        1 MOL      0.145477
      6 H3          2.7550   -0.4340    4.5510 hc        1 MOL      0.145477
      7 N1          5.7120   -0.6030    3.3910 n         1 MOL     -0.248883
      8 C3          6.8320    0.0260    2.7490 c3        1 MOL      0.018595
      9 C4          6.7740   -0.1830    1.2460 c         1 MOL      0.216763
     10 O2          6.1300   -1.0530    0.7030 o         1 MOL     -0.347569
     11 C5          8.1640   -0.6210    3.3130 c3        1 MOL     -0.152912
     12 C6          8.2490   -2.1780    3.2370 c         1 MOL      0.702490
     13 O3          9.2590   -2.6490    3.7770 o         1 MOL     -0.694780
     14 O4          7.3080   -2.9320    2.6850 o         1 MOL     -0.694780
     15 H4          5.4760   -1.5070    3.0070 hn        1 MOL      0.145274
     16 H5          6.8330    1.0860    2.9660 h1        1 MOL      0.051052
     17 H6          8.2260   -0.4340    4.3900 hc        1 MOL      0.029579
     18 H7          9.0500   -0.2410    2.7900 hc        1 MOL      0.029579
     19 N2          7.5230    0.6270    0.5080 n         1 MOL     -0.249565
     20 C7          7.3930    0.7110   -0.9510 c3        1 MOL      0.181720
     21 C8          6.1290    1.4290   -1.2940 c         1 MOL      0.464187
     22 O5          5.3360    2.0060   -0.5310 o         1 MOL     -0.541201
     23 C9          8.7450    1.3730   -1.4480 c3        1 MOL     -0.212867
     24 H8          8.1660    1.2710    0.9400 hn        1 MOL      0.225738
     25 H9          7.4040   -0.3410   -1.2580 h1        1 MOL      0.020207
     26 H10         8.8880    2.3160   -0.9110 hc        1 MOL      0.055349
     27 H11         9.5590    0.7050   -1.1880 hc        1 MOL      0.055349
     28 H12         8.7950    1.5570   -2.5130 hc        1 MOL      0.055349
     29 N3          5.9200    1.3290   -2.6340 n         1 MOL     -0.624495
     30 C10         4.6310    1.8350   -3.2540 c3        1 MOL      0.045361
     31 C11         4.7010    3.3490   -3.6510 c         1 MOL      0.729554
     32 O6          5.5720    3.8900   -4.2840 o         1 MOL     -0.588518
     33 C12         4.0750    0.8280   -4.3080 c3        1 MOL     -0.376408
     34 C13         4.0120   -0.6190   -3.7550 c         1 MOL      0.793145
     35 O7          4.1400   -0.8770   -2.5010 o         1 MOL     -0.685348
     36 O8          4.0120   -1.5590   -4.6140 o         1 MOL     -0.685348
     37 H13         6.6910    1.0140   -3.2030 hn        1 MOL      0.391428
     38 H14         3.8900    1.7830   -2.4620 h1        1 MOL      0.043166
     39 H15         4.7410    0.8330   -5.1660 hc        1 MOL      0.091584
     40 H16         3.0670    1.2000   -4.4710 hc        1 MOL      0.091584
     41 N4          3.6080    4.0520   -3.4340 n         1 MOL     -0.462527
     42 C14         3.3460    5.4350   -3.9910 c3        1 MOL     -0.294033
     43 C15         1.9730    6.0230   -3.7260 c         1 MOL      0.624290
     44 O9          1.7190    7.1700   -4.1140 o         1 MOL     -0.574866
     45 H17         2.8170    3.6510   -2.9570 hn        1 MOL      0.302732
     46 H18         3.4640    5.4210   -5.0750 h1        1 MOL      0.161059
     47 H19         4.0980    6.0600   -3.5290 h1        1 MOL      0.161059
     48 N5          1.0160    5.2740   -3.0920 n         1 MOL     -0.398127
     49 C16        -0.4280    5.6530   -2.9070 c3        1 MOL      0.060291
     50 C17        -0.7040    5.4570   -1.3830 c         1 MOL      0.457120
     51 O10        -0.3910    4.4160   -0.7690 o         1 MOL     -0.434432
     52 C18        -1.2930    4.7550   -3.7980 c3        1 MOL     -0.123975
     53 C19        -2.7440    5.2470   -3.8130 c         1 MOL      0.551816
     54 N6         -3.0890    6.3860   -4.3240 n         1 MOL     -0.767507
     55 O11        -3.6780    4.5840   -3.3570 o         1 MOL     -0.525621
     56 H20         1.3210    4.4430   -2.6210 hn        1 MOL      0.232740
     57 H21        -0.6800    6.6650   -3.2140 h1        1 MOL      0.059691
     58 H22        -1.2670    3.7060   -3.5230 hc        1 MOL      0.075143
     59 H23        -0.8520    4.7620   -4.7940 hc        1 MOL      0.075143
     60 H24        -2.4620    7.0450   -4.7600 hn        1 MOL      0.363253
     61 H25        -4.0880    6.5220   -4.3170 hn        1 MOL      0.363253
     62 N7         -1.2460    6.4950   -0.7200 n         1 MOL     -0.498302
     63 C20        -1.4800    6.4210    0.7190 c3        1 MOL      0.167441
     64 C21        -2.9110    6.0400    1.0390 c         1 MOL      0.367341
     65 O12        -3.7390    5.7050    0.1660 o         1 MOL     -0.411204
     66 H26        -1.4450    7.3450   -1.2190 hn        1 MOL      0.299620
     67 H27        -1.2320    7.3270    1.2600 h1        1 MOL      0.041177
     68 H28        -0.7710    5.6990    1.1350 h1        1 MOL      0.041177
     69 N8         -3.2850    5.8690    2.3300 n         1 MOL     -0.296162
     70 C22        -4.5470    5.3780    2.8730 c3        1 MOL     -0.251713
     71 C23        -4.6860    3.8060    3.0190 c         1 MOL      0.516381
     72 O13        -5.7660    3.1670    2.9020 o         1 MOL     -0.550388
     73 C24        -5.0080    6.0140    4.2290 c3        1 MOL      0.517050
     74 C25        -4.2590    5.7170    5.5820 c3        1 MOL     -0.137503
     75 O14        -5.1220    7.4280    4.1310 oh        1 MOL     -0.653465
     76 H29        -2.7160    6.2700    3.0600 hn        1 MOL      0.201851
     77 H30        -5.2740    5.7840    2.1640 h1        1 MOL      0.105567
     78 H31        -6.0280    5.6760    4.4120 h1        1 MOL      0.011720
     79 H32        -4.2960    7.7530    3.7620 ho        1 MOL      0.364616
     80 H33        -3.9150    4.6870    5.5630 hc        1 MOL      0.017538
     81 H34        -3.4860    6.4780    5.7400 hc        1 MOL      0.017538
     82 H35        -4.9820    5.8630    6.3900 hc        1 MOL      0.017538
     83 N9         -3.5140    3.2060    3.3000 n         1 MOL     -0.133479
     84 C26        -3.3100    1.7560    3.4830 c3        1 MOL     -0.049718
     85 C27        -2.1060    1.2120    2.6530 c         1 MOL      0.393931
     86 O15        -0.9930    1.7850    2.7350 o         1 MOL     -0.500811
     87 C28        -3.2420    1.2800    4.9680 c3        1 MOL      0.132769
     88 C29        -4.7070    1.3880    5.5800 c3        1 MOL     -0.058694
     89 C30        -2.6590   -0.0820    5.1800 c3        1 MOL     -0.180103
     90 C31        -5.8290    0.5690    4.9490 c3        1 MOL     -0.115562
     91 H36        -2.6940    3.7990    3.2640 hn        1 MOL      0.156429
     92 H37        -4.1170    1.2310    2.9850 h1        1 MOL      0.042290
     93 H38        -2.5820    1.9580    5.5030 hc        1 MOL     -0.000572
     94 H39        -4.9980    2.4400    5.5510 hc        1 MOL      0.001775
     95 H40        -4.5730    1.0740    6.6090 hc        1 MOL      0.001775
     96 H41        -3.2020   -0.8140    4.5870 hc        1 MOL      0.053462
     97 H42        -1.6140   -0.1250    4.8770 hc        1 MOL      0.053462
     98 H43        -2.7530   -0.5190    6.1740 hc        1 MOL      0.053462
     99 H44        -6.3550    1.0960    4.1550 hc        1 MOL      0.039538
    100 H45        -5.4800   -0.3690    4.5120 hc        1 MOL      0.039538
    101 H46        -6.5300    0.4190    5.7750 hc        1 MOL      0.039538
    102 N10        -2.3580    0.1860    1.8850 n         1 MOL     -0.355829
    103 C32        -1.4710   -0.3090    0.8450 c3        1 MOL      0.081443
    104 C33        -2.2050   -1.1670   -0.1590 c         1 MOL      0.423976
    105 O16        -1.7420   -2.2450   -0.5330 o         1 MOL     -0.351508
    106 C34        -0.3880   -1.1060    1.5820 c3        1 MOL     -0.102675
    107 C35         0.8330   -1.5640    0.7910 c         1 MOL      0.760284
    108 O17         1.0520   -1.1220   -0.3630 o         1 MOL     -0.778694
    109 O18         1.7310   -2.2560    1.2390 o         1 MOL     -0.778694
    110 H47        -3.2630   -0.1920    2.1360 hn        1 MOL      0.263637
    111 H48        -1.0010    0.5460    0.3580 h1        1 MOL      0.094454
    112 H49        -0.8070   -1.9660    2.0990 hc        1 MOL      0.043260
    113 H50        -0.0290   -0.6520    2.5150 hc        1 MOL      0.043260
    114 N11        -3.4830   -0.8650   -0.5000 n         1 MOL     -0.441178
    115 C36        -4.1860   -1.5270   -1.5170 c3        1 MOL      0.240533
    116 C37        -4.4030   -2.9890   -1.1720 c         1 MOL      0.157653
    117 O19        -4.7670   -3.2780    0.0090 o         1 MOL     -0.510490
    118 C38        -5.5620   -0.9280   -1.7460 c3        1 MOL     -0.375041
    119 C39        -6.6080   -1.7430   -2.3610 ca        1 MOL      0.024997
    120 C40        -7.4050   -2.5950   -1.4950 ca        1 MOL     -0.068584
    121 C41        -7.0150   -1.5180   -3.6670 ca        1 MOL     -0.068584
    122 C42        -8.5540   -3.1600   -2.0580 ca        1 MOL     -0.170875
    123 C43        -8.1230   -2.1820   -4.1960 ca        1 MOL     -0.170875
    124 C44        -8.9010   -2.9900   -3.3810 ca        1 MOL     -0.070661
    125 H51        -3.8490    0.0000   -0.1410 hn        1 MOL      0.237424
    126 H52        -3.5860   -1.3920   -2.4170 h1        1 MOL      0.049149
    127 H53        -5.4620    0.0140   -2.2830 hc        1 MOL      0.150717
    128 H54        -5.9660   -0.6370   -0.7770 hc        1 MOL      0.150717
    129 H55        -7.1960   -2.6420   -0.4380 ha        1 MOL      0.103762
    130 H56        -6.4620   -0.8370   -4.2790 ha        1 MOL      0.103762
    131 H57        -9.1730   -3.8360   -1.4780 ha        1 MOL      0.111014
    132 H58        -8.3470   -2.1350   -5.2570 ha        1 MOL      0.111014
    133 H59        -9.8660   -3.3580   -3.7090 ha        1 MOL      0.088976
    134 N12        -4.2750   -3.9460   -2.1010 n         1 MOL      0.300651
    135 C45        -4.5070   -5.3860   -1.9730 c3        1 MOL     -0.008973
    136 C46        -3.5150   -6.0730   -1.0810 c         1 MOL      0.229555
    137 O20        -3.7500   -7.1860   -0.5900 o         1 MOL     -0.499122
    138 C47        -4.5460   -5.9230   -3.4450 c3        1 MOL      0.077791
    139 C48        -3.6370   -4.9840   -4.0980 c3        1 MOL      0.006847
    140 C49        -3.9080   -3.6300   -3.4420 c3        1 MOL     -0.064069
    141 H60        -5.5210   -5.4910   -1.5960 h1        1 MOL      0.045963
    142 H61        -4.3640   -6.9740   -3.6340 hc        1 MOL     -0.012479
    143 H62        -5.5510   -5.6780   -3.7930 hc        1 MOL     -0.012479
    144 H63        -2.6040   -5.2910   -3.9410 hc        1 MOL      0.014354
    145 H64        -3.7920   -4.9410   -5.1760 hc        1 MOL      0.014354
    146 H65        -3.0670   -2.9360   -3.5300 h1        1 MOL     -0.002616
    147 H66        -4.8450   -3.2240   -3.8120 h1        1 MOL     -0.002616
    148 N13        -2.3130   -5.5460   -0.7620 n         1 MOL     -0.027415
    149 C50        -1.3290   -6.2840    0.0890 c3        1 MOL     -0.365237
    150 C51        -1.7470   -6.4360    1.5710 c         1 MOL      0.595358
    151 O21        -1.3290   -7.4760    2.0930 o         1 MOL     -0.552087
    152 C52        -0.0670   -5.4720    0.1160 c3        1 MOL      0.160474
    153 C53         0.8920   -5.6100   -1.0470 c3        1 MOL     -0.098367
    154 C54         2.0640   -4.6890   -0.9880 c         1 MOL      0.708554
    155 O22         2.0570   -3.7600   -1.7450 o         1 MOL     -0.753430
    156 O23         3.0190   -4.7620   -0.1670 o         1 MOL     -0.753430
    157 H67        -2.0170   -4.7070   -1.2450 hn        1 MOL      0.118220
    158 H68        -1.0790   -7.2880   -0.2540 h1        1 MOL      0.167926
    159 H69         0.5140   -5.6790    1.0150 hc        1 MOL      0.001454
    160 H70        -0.3990   -4.4400    0.2930 hc        1 MOL      0.001454
    161 H71         0.3880   -5.2590   -1.9480 hc        1 MOL      0.000862
    162 H72         1.1480   -6.6580   -1.2100 hc        1 MOL      0.000862
    163 N14        -2.5210   -5.4600    2.0840 n         1 MOL     -0.284786
    164 C55        -2.9120   -5.3110    3.4760 c3        1 MOL     -0.160886
    165 H73        -3.0470   -4.2540    3.7040 h1        1 MOL      0.075453
    166 H74        -3.8480   -5.8420    3.6510 h1        1 MOL      0.075453
    167 H75        -2.1340   -5.7230    4.1190 h1        1 MOL      0.075453
    168 H76        -2.5750   -4.6400    1.5060 hn        1 MOL      0.236371
    169 Ca1         3.6380   -2.0060   -0.3190 Ca        1 MOL      1.700268
    170 O24         3.6550    0.3140    0.9680 oh        1 MOL     -0.791001
    171 H77         2.9000    0.8900    0.8700 ho        1 MOL      0.391313
    172 H78         4.4100    0.8820    0.7800 ho        1 MOL      0.391313
    173 O25         6.0020   -2.9570   -1.4680 oh        1 MOL     -0.791001
    174 H79         6.4920   -2.6450   -2.2270 ho        1 MOL      0.391313
    175 H80         6.6230   -3.4840   -0.9760 ho        1 MOL      0.391313
    176 O26         4.8000   -3.3370    1.9890 oh        1 MOL     -0.791001
    177 H81         4.6000   -3.8400    2.7740 ho        1 MOL      0.391313
    178 H82         5.7540   -3.2520    1.9880 ho        1 MOL      0.391313
@<TRIPOS>BOND
     1    1    2 1   
     2    1    4 1   
     3    1    5 1   
     4    1    6 1   
     5    2    3 2   
     6    2    7 1   
     7    7    8 1   
     8    7   15 1   
     9    8    9 1   
    10    8   11 1   
    11    8   16 1   
    12    9   10 2   
    13    9   19 1   
    14   11   12 1   
    15   11   17 1   
    16   11   18 1   
    17   12   13 1   
    18   12   14 1   
    19   19   20 1   
    20   19   24 1   
    21   20   21 1   
    22   20   23 1   
    23   20   25 1   
    24   21   22 2   
    25   21   29 1   
    26   23   26 1   
    27   23   27 1   
    28   23   28 1   
    29   29   30 1   
    30   29   37 1   
    31   30   31 1   
    32   30   33 1   
    33   30   38 1   
    34   31   32 2   
    35   31   41 1   
    36   33   34 1   
    37   33   39 1   
    38   33   40 1   
    39   34   35 1   
    40   34   36 1   
    41   41   42 1   
    42   41   45 1   
    43   42   43 1   
    44   42   46 1   
    45   42   47 1   
    46   43   44 2   
    47   43   48 1   
    48   48   49 1   
    49   48   56 1   
    50   49   50 1   
    51   49   52 1   
    52   49   57 1   
    53   50   51 2   
    54   50   62 1   
    55   52   53 1   
    56   52   58 1   
    57   52   59 1   
    58   53   54 1   
    59   53   55 2   
    60   54   60 1   
    61   54   61 1   
    62   62   63 1   
    63   62   66 1   
    64   63   64 1   
    65   63   67 1   
    66   63   68 1   
    67   64   65 2   
    68   64   69 1   
    69   69   70 1   
    70   69   76 1   
    71   70   71 1   
    72   70   73 1   
    73   70   77 1   
    74   71   72 2   
    75   71   83 1   
    76   73   74 1   
    77   73   75 1   
    78   73   78 1   
    79   74   80 1   
    80   74   81 1   
    81   74   82 1   
    82   75   79 1   
    83   83   84 1   
    84   83   91 1   
    85   84   85 1   
    86   84   87 1   
    87   84   92 1   
    88   85   86 2   
    89   85  102 1   
    90   87   88 1   
    91   87   89 1   
    92   87   93 1   
    93   88   90 1   
    94   88   94 1   
    95   88   95 1   
    96   89   96 1   
    97   89   97 1   
    98   89   98 1   
    99   90   99 1   
   100   90  100 1   
   101   90  101 1   
   102  102  103 1   
   103  102  110 1   
   104  103  104 1   
   105  103  106 1   
   106  103  111 1   
   107  104  105 2   
   108  104  114 1   
   109  106  107 1   
   110  106  112 1   
   111  106  113 1   
   112  107  108 1   
   113  107  109 1   
   114  114  115 1   
   115  114  125 1   
   116  115  116 1   
   117  115  118 1   
   118  115  126 1   
   119  116  117 2   
   120  116  134 1   
   121  118  119 1   
   122  118  127 1   
   123  118  128 1   
   124  119  120 ar  
   125  119  121 ar  
   126  120  122 ar  
   127  120  129 1   
   128  121  123 ar  
   129  121  130 1   
   130  122  124 ar  
   131  122  131 1   
   132  123  124 ar  
   133  123  132 1   
   134  124  133 1   
   135  134  135 1   
   136  134  140 1   
   137  135  136 1   
   138  135  138 1   
   139  135  141 1   
   140  136  137 2   
   141  136  148 1   
   142  138  139 1   
   143  138  142 1   
   144  138  143 1   
   145  139  140 1   
   146  139  144 1   
   147  139  145 1   
   148  140  146 1   
   149  140  147 1   
   150  148  149 1   
   151  148  157 1   
   152  149  150 1   
   153  149  152 1   
   154  149  158 1   
   155  150  151 2   
   156  150  163 1   
   157  152  153 1   
   158  152  159 1   
   159  152  160 1   
   160  153  154 1   
   161  153  161 1   
   162  153  162 1   
   163  154  155 1   
   164  154  156 1   
   165  163  164 1   
   166  163  168 1   
   167  164  165 1   
   168  164  166 1   
   169  164  167 1   
   170  170  171 1   
   171  170  172 1   
   172  173  174 1   
   173  173  175 1   
   174  176  177 1   
   175  176  178 1   
@<TRIPOS>SUBSTRUCTURE
     1 MOL         1 TEMP              0 ****  ****    0 ROOT
