@<TRIPOS>MOLECULE
MOL
  198   191     1     0     0
SMALL
resp


@<TRIPOS>ATOM
      1 C1         -4.8630    4.1990    5.0470 c3        1 MOL     -0.425767
      2 C2         -5.1830    3.1460    4.0000 c         1 MOL      0.628291
      3 O1         -4.7150    2.0130    3.9740 o         1 MOL     -0.608688
      4 H1         -3.8650    4.6010    4.8650 hc        1 MOL      0.102028
      5 H2         -5.5940    5.0040    4.9880 hc        1 MOL      0.102028
      6 H3         -4.8970    3.7480    6.0390 hc        1 MOL      0.102028
      7 N1         -5.9660    3.6990    3.0960 n         1 MOL     -0.249795
      8 C3         -6.8100    2.8350    2.1790 c3        1 MOL     -0.304341
      9 C4         -5.9880    2.2690    1.0740 c         1 MOL      0.793986
     10 O2         -5.1090    2.9220    0.4870 o         1 MOL     -0.562738
     11 C5         -8.1200    3.5820    1.8340 c3        1 MOL     -0.089743
     12 C6         -8.0030    5.0850    1.3530 c         1 MOL      0.554011
     13 O3         -9.1410    5.6780    1.2340 o         1 MOL     -0.653975
     14 O4         -6.9230    5.5670    0.9380 o         1 MOL     -0.653975
     15 H4         -6.3070    4.6520    3.1630 hn        1 MOL      0.302285
     16 H5         -7.1960    2.0290    2.8040 h1        1 MOL      0.094986
     17 H6         -8.6840    3.6590    2.7630 hc        1 MOL      0.052813
     18 H7         -8.6440    2.9700    1.1140 hc        1 MOL      0.052813
     19 N2         -6.2300    0.9740    0.6940 n         1 MOL     -0.736068
     20 C7         -5.4180    0.1790   -0.2210 c3        1 MOL      0.420460
     21 C8         -5.1100    0.8870   -1.6130 c         1 MOL      0.100622
     22 O5         -5.8980    1.6760   -2.1150 o         1 MOL     -0.467551
     23 C9         -6.1030   -1.1490   -0.5290 c3        1 MOL      0.058761
     24 C10        -6.4670   -1.9890    0.7370 c3        1 MOL     -0.257357
     25 C11        -7.3840   -3.1070    0.3780 c3        1 MOL      0.181959
     26 C12        -7.7210   -4.0010    1.6260 c3        1 MOL     -0.018638
     27 N3         -8.3780   -5.3380    1.3280 n4        1 MOL     -0.331782
     28 H8         -6.8890    0.4840    1.2900 hn        1 MOL      0.352863
     29 H9         -4.4720   -0.1640    0.2110 h1        1 MOL      0.006416
     30 H10        -5.4590   -1.7700   -1.1580 hc        1 MOL      0.018356
     31 H11        -7.0490   -0.8680   -0.9900 hc        1 MOL      0.018356
     32 H12        -6.9680   -1.3010    1.4120 hc        1 MOL      0.068245
     33 H13        -5.6400   -2.5260    1.2020 hc        1 MOL      0.068245
     34 H14        -6.8820   -3.8180   -0.2750 hc        1 MOL      0.010171
     35 H15        -8.3250   -2.8040   -0.0910 hc        1 MOL      0.010171
     36 H16        -8.4060   -3.4840    2.2980 hx        1 MOL      0.068264
     37 H17        -6.7210   -4.2250    1.9950 hx        1 MOL      0.068264
     38 H18        -8.2220   -6.0370    2.0280 hn        1 MOL      0.290627
     39 H19        -9.3870   -5.2720    1.2260 hn        1 MOL      0.290627
     40 H20        -7.8990   -5.8140    0.5790 hn        1 MOL      0.290627
     41 N4         -4.0330    0.4880   -2.2680 n         1 MOL     -0.336941
     42 C13        -3.6270    1.0740   -3.5600 c3        1 MOL      0.338171
     43 C14        -3.0860    0.0410   -4.5050 c         1 MOL      0.444686
     44 O6         -1.9770    0.1120   -5.0100 o         1 MOL     -0.526537
     45 C15        -2.6750    2.2250   -3.3350 c3        1 MOL     -0.399224
     46 C16        -3.3250    3.3090   -2.4740 c         1 MOL      0.844455
     47 O7         -4.1950    4.0270   -3.0610 o         1 MOL     -0.731750
     48 O8         -2.9460    3.5460   -1.3520 o         1 MOL     -0.731750
     49 H21        -3.5080   -0.2330   -1.7970 hn        1 MOL      0.286453
     50 H22        -4.4250    1.4760   -4.1860 h1        1 MOL      0.031187
     51 H23        -2.3790    2.6950   -4.2680 hc        1 MOL      0.090976
     52 H24        -1.8180    1.7710   -2.8450 hc        1 MOL      0.090976
     53 N5         -3.8500   -0.9950   -4.8370 n         1 MOL     -0.282389
     54 C17        -5.3030   -1.2350   -4.5970 c3        1 MOL     -0.339971
     55 C18        -5.5090   -2.5170   -3.7080 c         1 MOL      0.629115
     56 O9         -6.6190   -2.8900   -3.3230 o         1 MOL     -0.647079
     57 H25        -3.4610   -1.5640   -5.5730 hn        1 MOL      0.279560
     58 H26        -5.8580   -1.2600   -5.5360 h1        1 MOL      0.156691
     59 H27        -5.7790   -0.4390   -4.0210 h1        1 MOL      0.156691
     60 N6         -4.4080   -3.0960   -3.2530 n         1 MOL     -0.131724
     61 C19        -4.3040   -4.4970   -2.7220 c3        1 MOL     -0.002652
     62 C20        -2.9380   -4.6940   -2.0090 c         1 MOL      0.437557
     63 O10        -2.0520   -3.8770   -1.9450 o         1 MOL     -0.437721
     64 C21        -4.3920   -5.6150   -3.7540 c3        1 MOL     -0.100199
     65 C22        -3.6150   -5.3920   -5.0450 c         1 MOL      0.668057
     66 O11        -2.7090   -4.5220   -5.0980 o         1 MOL     -0.655136
     67 O12        -3.9620   -6.0510   -6.0450 o         1 MOL     -0.655136
     68 H28        -3.6190   -2.4670   -3.3160 hn        1 MOL      0.119068
     69 H29        -5.1680   -4.6860   -2.0870 h1        1 MOL     -0.001028
     70 H30        -5.4330   -5.7380   -4.0530 hc        1 MOL      0.002854
     71 H31        -4.1050   -6.5520   -3.2640 hc        1 MOL      0.002854
     72 N7         -2.8300   -5.8330   -1.3070 n         1 MOL     -0.264254
     73 C23        -1.5130   -6.1320   -0.6350 c3        1 MOL     -0.251075
     74 C24        -1.2260   -5.2750    0.6250 c         1 MOL      0.453196
     75 O13        -0.0600   -5.1240    1.0000 o         1 MOL     -0.513396
     76 H32        -3.5940   -6.4770   -1.2410 hn        1 MOL      0.243003
     77 H33        -0.6030   -6.0820   -1.2320 h1        1 MOL      0.155160
     78 H34        -1.6160   -7.1450   -0.2450 h1        1 MOL      0.155160
     79 N8         -2.1650   -4.8300    1.4770 n         1 MOL     -0.233062
     80 C25        -1.8150   -4.1380    2.7630 c3        1 MOL      0.085883
     81 C26        -1.3780   -2.6580    2.5500 c         1 MOL      0.213054
     82 O14        -1.6890   -2.0070    1.5740 o         1 MOL     -0.461702
     83 C27        -2.9080   -4.3690    3.8140 c3        1 MOL      0.358133
     84 C28        -4.1900   -3.5110    3.5820 c3        1 MOL     -0.669612
     85 O15        -3.1510   -5.7680    3.9070 oh        1 MOL     -0.643564
     86 H35        -3.1190   -4.9360    1.1530 hn        1 MOL      0.130970
     87 H36        -0.9500   -4.6440    3.1970 h1        1 MOL      0.066439
     88 H37        -2.6190   -4.0290    4.8070 h1        1 MOL      0.025485
     89 H38        -3.9770   -5.8290    4.3760 ho        1 MOL      0.399998
     90 H39        -4.6680   -3.9620    2.7190 hc        1 MOL      0.167639
     91 H40        -4.8060   -3.6510    4.4790 hc        1 MOL      0.167639
     92 H41        -3.9720   -2.4550    3.4330 hc        1 MOL      0.167639
     93 N9         -0.5020   -2.2580    3.4270 n         1 MOL     -0.078852
     94 C29         0.1260   -0.8710    3.3030 c3        1 MOL      0.044978
     95 C30         1.2290   -0.8090    2.2330 c         1 MOL      0.347161
     96 O16         1.3610    0.1990    1.4900 o         1 MOL     -0.506938
     97 C31         0.6830   -0.4880    4.7130 c3        1 MOL      0.176543
     98 C32        -0.3240   -0.6800    5.8760 c3        1 MOL     -0.091704
     99 C33         1.2530    0.9650    4.7260 c3        1 MOL     -0.311614
    100 C34        -1.7990   -0.2690    5.6450 c3        1 MOL     -0.265706
    101 H42        -0.2410   -2.8370    4.2130 hn        1 MOL      0.167424
    102 H43        -0.6740   -0.2300    2.9440 h1        1 MOL      0.094681
    103 H44         1.5300   -1.1620    4.8650 hc        1 MOL     -0.018580
    104 H45         0.0840   -0.1510    6.7400 hc        1 MOL      0.014295
    105 H46        -0.3820   -1.7520    6.0560 hc        1 MOL      0.014295
    106 H47         1.9760    1.2090    3.9440 hc        1 MOL      0.093247
    107 H48         0.4270    1.6550    4.5490 hc        1 MOL      0.093247
    108 H49         1.7950    1.1480    5.6530 hc        1 MOL      0.093247
    109 H50        -2.2630   -0.8990    4.8860 hc        1 MOL      0.093121
    110 H51        -2.3840   -0.3120    6.5670 hc        1 MOL      0.093121
    111 H52        -1.8010    0.7550    5.2920 hc        1 MOL      0.093121
    112 N10         2.0090   -1.8450    2.1500 n         1 MOL     -0.316374
    113 C35         3.0640   -2.0810    1.1640 c3        1 MOL      0.037834
    114 C36         4.3650   -2.7750    1.7240 c         1 MOL      0.601824
    115 O17         4.3490   -3.6030    2.6070 o         1 MOL     -0.544989
    116 C37         2.5020   -2.8920    0.0270 c3        1 MOL      0.436372
    117 C38         1.3840   -2.2180   -0.8680 c3        1 MOL     -0.328587
    118 O18         3.5420   -3.0280   -0.9580 oh        1 MOL     -0.618499
    119 H53         1.8860   -2.6990    2.6730 hn        1 MOL      0.193231
    120 H54         3.3550   -1.0980    0.7910 h1        1 MOL      0.073551
    121 H55         2.2120   -3.8500    0.4490 h1        1 MOL     -0.045685
    122 H56         3.5790   -3.9610   -1.1670 ho        1 MOL      0.368978
    123 H57         1.7050   -1.2270   -1.1770 hc        1 MOL      0.104792
    124 H58         1.2670   -2.8300   -1.7560 hc        1 MOL      0.104792
    125 H59         0.4800   -2.1620   -0.2720 hc        1 MOL      0.104792
    126 N11         5.5010   -2.3000    1.2170 n         1 MOL     -0.610878
    127 C39         6.7720   -2.7440    1.7580 c3        1 MOL      0.057542
    128 C40         7.8530   -1.6770    1.7160 c         1 MOL      0.597188
    129 O19         8.5860   -1.4330    2.6740 o         1 MOL     -0.568825
    130 C41         7.1510   -4.1250    1.1390 c3        1 MOL      0.264580
    131 C42         8.5090   -4.7190    1.4350 c3        1 MOL     -0.530935
    132 O20         7.1060   -3.9270   -0.2670 oh        1 MOL     -0.630034
    133 H60         5.4430   -1.6920    0.4140 hn        1 MOL      0.310283
    134 H61         6.6400   -2.9420    2.8240 h1        1 MOL      0.096946
    135 H62         6.4480   -4.8490    1.5540 h1        1 MOL      0.078853
    136 H63         7.5490   -4.6130   -0.7870 ho        1 MOL      0.411020
    137 H64         9.1800   -4.0230    0.9300 hc        1 MOL      0.145035
    138 H65         8.5820   -4.8050    2.5200 hc        1 MOL      0.145035
    139 H66         8.3940   -5.6750    0.9110 hc        1 MOL      0.145035
    140 N12         7.9120   -0.9160    0.6170 n         1 MOL     -0.376724
    141 C43         8.9330    0.1020    0.3310 c3        1 MOL     -0.028507
    142 C44         8.5070    1.2000   -0.6370 c         1 MOL      0.297681
    143 O21         7.7570    0.9740   -1.5610 o         1 MOL     -0.474193
    144 C45        10.2270   -0.6140   -0.1100 c3        1 MOL     -0.113312
    145 C46        10.1710   -1.1060   -1.4820 c3        1 MOL     -0.082768
    146 C47        11.3120   -1.9740   -1.8850 c3        1 MOL     -0.051289
    147 C48        12.6170   -1.1180   -1.9440 c3        1 MOL      0.090250
    148 N13        13.8510   -1.9390   -1.8990 n4        1 MOL     -0.293881
    149 H67         7.3260   -1.1600   -0.1760 hn        1 MOL      0.299772
    150 H68         9.2580    0.4720    1.3090 h1        1 MOL      0.104170
    151 H69        10.4730   -1.4880    0.4840 hc        1 MOL      0.041529
    152 H70        11.0930    0.0460   -0.0340 hc        1 MOL      0.041529
    153 H71        10.2260   -0.2410   -2.1450 hc        1 MOL      0.077903
    154 H72         9.2590   -1.6850   -1.6000 hc        1 MOL      0.077903
    155 H73        11.1770   -2.4290   -2.8690 hc        1 MOL      0.030682
    156 H74        11.4040   -2.7230   -1.0950 hc        1 MOL      0.030682
    157 H75        12.5500   -0.5300   -1.0240 hx        1 MOL      0.075551
    158 H76        12.6460   -0.3760   -2.7390 hx        1 MOL      0.075551
    159 H77        14.5700   -1.3090   -1.5570 hn        1 MOL      0.254422
    160 H78        13.7260   -2.7610   -1.3320 hn        1 MOL      0.254422
    161 H79        14.1630   -2.3690   -2.7600 hn        1 MOL      0.254422
    162 N14         9.0160    2.3720   -0.4060 n         1 MOL     -0.238852
    163 C49         8.7700    3.5640   -1.2250 c3        1 MOL      0.056366
    164 C50         7.2470    3.7610   -1.2770 c         1 MOL      0.459626
    165 O22         6.6870    4.1160   -2.3550 o         1 MOL     -0.547542
    166 C51         9.5100    4.6960   -0.6130 c3        1 MOL      0.117369
    167 C52        11.0390    4.6450   -0.8590 c3        1 MOL     -0.256991
    168 C53        11.5820    6.0750   -0.7420 c         1 MOL      0.693492
    169 O23        11.4280    6.9240   -1.6980 o         1 MOL     -0.641449
    170 O24        12.2130    6.4780    0.2720 o         1 MOL     -0.641449
    171 H80         9.7250    2.4600    0.3050 hn        1 MOL      0.258173
    172 H81         9.0890    3.3240   -2.2390 h1        1 MOL      0.089035
    173 H82         9.2430    4.7120    0.4420 hc        1 MOL     -0.001605
    174 H83         9.0850    5.5680   -1.0960 hc        1 MOL     -0.001605
    175 H84        11.2590    4.2320   -1.8390 hc        1 MOL      0.012665
    176 H85        11.3990    3.9680   -0.0830 hc        1 MOL      0.012665
    177 N15         6.4210    3.5260   -0.2700 n         1 MOL     -0.324621
    178 C54         6.7190    3.8180    1.1250 c3        1 MOL      0.018039
    179 H86         6.6380    4.8920    1.2960 h1        1 MOL      0.027237
    180 H87         6.0100    3.2940    1.7650 h1        1 MOL      0.027237
    181 H88         7.7310    3.4890    1.3570 h1        1 MOL      0.027237
    182 H89         5.4440    3.5190   -0.5200 hn        1 MOL      0.287691
    183 Ca1        -4.6370    5.3080   -0.5850 Ca        1 MOL      1.669477
    184 O25        -6.7320    4.2340   -1.7850 oh        1 MOL     -0.836704
    185 H90        -7.6750    4.0990   -1.7700 ho        1 MOL      0.416683
    186 H91        -6.3790    3.3860   -2.0690 ho        1 MOL      0.416683
    187 O26        -5.1740    7.7920    0.1670 oh        1 MOL     -0.836704
    188 H92        -5.3840    8.1500   -0.6940 ho        1 MOL      0.416683
    189 H93        -5.9460    7.9740    0.7020 ho        1 MOL      0.416683
    190 O27        -5.3830    6.9050   -2.8140 oh        1 MOL     -0.836704
    191 H94        -6.2490    6.6330   -3.1090 ho        1 MOL      0.416683
    192 H95        -5.2020    7.7120   -3.2910 ho        1 MOL      0.416683
    193 O28        -2.4440    6.6090   -1.4570 oh        1 MOL     -0.836704
    194 H96        -2.5260    7.4130   -1.9720 ho        1 MOL      0.416683
    195 H97        -1.4960    6.4760   -1.3950 ho        1 MOL      0.416683
    196 O29        -3.7050    5.5310    1.8600 oh        1 MOL     -0.836704
    197 H98        -2.9120    4.9860    1.8440 ho        1 MOL      0.416683
    198 H99        -3.4000    6.3770    2.1710 ho        1 MOL      0.416683
@<TRIPOS>BOND
     1    1    2 1   
     2    1    4 1   
     3    1    5 1   
     4    1    6 1   
     5    2    3 2   
     6    2    7 1   
     7    7    8 1   
     8    7   15 1   
     9    8    9 1   
    10    8   11 1   
    11    8   16 1   
    12    9   10 2   
    13    9   19 1   
    14   11   12 1   
    15   11   17 1   
    16   11   18 1   
    17   12   13 1   
    18   12   14 1   
    19   19   20 1   
    20   19   28 1   
    21   20   21 1   
    22   20   23 1   
    23   20   29 1   
    24   21   22 2   
    25   21   41 1   
    26   23   24 1   
    27   23   30 1   
    28   23   31 1   
    29   24   25 1   
    30   24   32 1   
    31   24   33 1   
    32   25   26 1   
    33   25   34 1   
    34   25   35 1   
    35   26   27 1   
    36   26   36 1   
    37   26   37 1   
    38   27   38 1   
    39   27   39 1   
    40   27   40 1   
    41   41   42 1   
    42   41   49 1   
    43   42   43 1   
    44   42   45 1   
    45   42   50 1   
    46   43   44 2   
    47   43   53 1   
    48   45   46 1   
    49   45   51 1   
    50   45   52 1   
    51   46   47 1   
    52   46   48 1   
    53   53   54 1   
    54   53   57 1   
    55   54   55 1   
    56   54   58 1   
    57   54   59 1   
    58   55   56 2   
    59   55   60 1   
    60   60   61 1   
    61   60   68 1   
    62   61   62 1   
    63   61   64 1   
    64   61   69 1   
    65   62   63 2   
    66   62   72 1   
    67   64   65 1   
    68   64   70 1   
    69   64   71 1   
    70   65   66 1   
    71   65   67 1   
    72   72   73 1   
    73   72   76 1   
    74   73   74 1   
    75   73   77 1   
    76   73   78 1   
    77   74   75 2   
    78   74   79 1   
    79   79   80 1   
    80   79   86 1   
    81   80   81 1   
    82   80   83 1   
    83   80   87 1   
    84   81   82 2   
    85   81   93 1   
    86   83   84 1   
    87   83   85 1   
    88   83   88 1   
    89   84   90 1   
    90   84   91 1   
    91   84   92 1   
    92   85   89 1   
    93   93   94 1   
    94   93  101 1   
    95   94   95 1   
    96   94   97 1   
    97   94  102 1   
    98   95   96 2   
    99   95  112 1   
   100   97   98 1   
   101   97   99 1   
   102   97  103 1   
   103   98  100 1   
   104   98  104 1   
   105   98  105 1   
   106   99  106 1   
   107   99  107 1   
   108   99  108 1   
   109  100  109 1   
   110  100  110 1   
   111  100  111 1   
   112  112  113 1   
   113  112  119 1   
   114  113  114 1   
   115  113  116 1   
   116  113  120 1   
   117  114  115 2   
   118  114  126 1   
   119  116  117 1   
   120  116  118 1   
   121  116  121 1   
   122  117  123 1   
   123  117  124 1   
   124  117  125 1   
   125  118  122 1   
   126  126  127 1   
   127  126  133 1   
   128  127  128 1   
   129  127  130 1   
   130  127  134 1   
   131  128  129 2   
   132  128  140 1   
   133  130  131 1   
   134  130  132 1   
   135  130  135 1   
   136  131  137 1   
   137  131  138 1   
   138  131  139 1   
   139  132  136 1   
   140  140  141 1   
   141  140  149 1   
   142  141  142 1   
   143  141  144 1   
   144  141  150 1   
   145  142  143 2   
   146  142  162 1   
   147  144  145 1   
   148  144  151 1   
   149  144  152 1   
   150  145  146 1   
   151  145  153 1   
   152  145  154 1   
   153  146  147 1   
   154  146  155 1   
   155  146  156 1   
   156  147  148 1   
   157  147  157 1   
   158  147  158 1   
   159  148  159 1   
   160  148  160 1   
   161  148  161 1   
   162  162  163 1   
   163  162  171 1   
   164  163  164 1   
   165  163  166 1   
   166  163  172 1   
   167  164  165 2   
   168  164  177 1   
   169  166  167 1   
   170  166  173 1   
   171  166  174 1   
   172  167  168 1   
   173  167  175 1   
   174  167  176 1   
   175  168  169 1   
   176  168  170 1   
   177  177  178 1   
   178  177  182 1   
   179  178  179 1   
   180  178  180 1   
   181  178  181 1   
   182  184  185 1   
   183  184  186 1   
   184  187  188 1   
   185  187  189 1   
   186  190  191 1   
   187  190  192 1   
   188  193  194 1   
   189  193  195 1   
   190  196  197 1   
   191  196  198 1   
@<TRIPOS>SUBSTRUCTURE
     1 MOL         1 TEMP              0 ****  ****    0 ROOT
