@<TRIPOS>MOLECULE
MOL
  175   173     1     0     0
SMALL
resp


@<TRIPOS>ATOM
      1 C1         -6.8950    7.7040    1.1390 c3        1 MOL     -0.326490
      2 C2         -7.9040    6.9100    0.3750 c         1 MOL      0.703068
      3 O1         -7.8180    7.0130   -0.8010 o         1 MOL     -0.594765
      4 H1         -7.3990    8.2770    1.9180 hc        1 MOL      0.072903
      5 H2         -6.1710    7.0300    1.5960 hc        1 MOL      0.072903
      6 H3         -6.3810    8.3860    0.4620 hc        1 MOL      0.072903
      7 N1         -8.5530    5.9370    0.8980 n         1 MOL     -0.569502
      8 C3         -9.4000    4.9750    0.1720 c3        1 MOL      0.181928
      9 C4         -8.6660    3.9600   -0.6550 c         1 MOL      0.515235
     10 O2         -9.1580    3.4350   -1.6980 o         1 MOL     -0.504052
     11 C5        -10.3600    4.3040    1.0910 c3        1 MOL     -0.292241
     12 C6        -11.4450    3.5050    0.3700 c         1 MOL      0.644452
     13 O3        -12.3300    4.1460   -0.2860 o         1 MOL     -0.701612
     14 O4        -11.3090    2.2530    0.2990 o         1 MOL     -0.701612
     15 H4         -8.4130    5.7960    1.8860 hn        1 MOL      0.292583
     16 H5         -9.8860    5.3980   -0.7030 h1        1 MOL      0.060133
     17 H6        -10.9060    5.0250    1.7050 hc        1 MOL      0.031901
     18 H7         -9.7430    3.7270    1.7730 hc        1 MOL      0.031901
     19 N2         -7.4310    3.6770   -0.3350 n         1 MOL     -0.293495
     20 C7         -6.5750    2.7160   -0.9390 c3        1 MOL     -0.132326
     21 C8         -5.4410    2.1760    0.0120 c         1 MOL      0.710942
     22 O5         -4.9300    2.9130    0.8290 o         1 MOL     -0.556760
     23 C9         -6.0110    3.3890   -2.2130 c3        1 MOL     -0.085043
     24 H8         -7.1230    4.0030    0.5730 hn        1 MOL      0.210265
     25 H9         -7.2070    1.9130   -1.3110 h1        1 MOL      0.120163
     26 H10        -5.7880    4.4500   -2.2070 hc        1 MOL      0.049130
     27 H11        -5.0930    2.8820   -2.5160 hc        1 MOL      0.049130
     28 H12        -6.6470    3.3410   -3.0980 hc        1 MOL      0.049130
     29 N3         -5.1080    0.8600    0.0980 n         1 MOL     -0.588127
     30 C10        -5.6360   -0.1970   -0.7410 c3        1 MOL      0.070343
     31 C11        -5.6210   -1.6070   -0.0130 c         1 MOL      0.561827
     32 O6         -5.0780   -1.9110    1.0260 o         1 MOL     -0.527620
     33 C12        -4.7080   -0.2060   -1.9640 c3        1 MOL     -0.107092
     34 C13        -3.2130   -0.3070   -1.6070 c         1 MOL      0.612762
     35 O7         -2.6480    0.6010   -0.9910 o         1 MOL     -0.637082
     36 O8         -2.5580   -1.2770   -2.0830 o         1 MOL     -0.637082
     37 H13        -4.4460    0.6100    0.8190 hn        1 MOL      0.315801
     38 H14        -6.6780   -0.1360   -1.0660 h1        1 MOL      0.045502
     39 H15        -4.8180    0.7430   -2.4910 hc        1 MOL      0.000240
     40 H16        -5.1040   -0.9700   -2.6230 hc        1 MOL      0.000240
     41 N4         -6.3650   -2.5640   -0.6060 n         1 MOL     -0.414319
     42 C14        -6.6990   -3.9340   -0.2120 c3        1 MOL     -0.092190
     43 C15        -6.4590   -5.0040   -1.3110 c         1 MOL      0.504699
     44 O9         -7.4430   -5.5580   -1.8480 o         1 MOL     -0.546052
     45 H17        -6.7660   -2.1990   -1.4590 hn        1 MOL      0.302689
     46 H18        -7.7080   -3.9550    0.1990 h1        1 MOL      0.111362
     47 H19        -6.1850   -4.2770    0.6880 h1        1 MOL      0.111362
     48 N5         -5.1970   -5.3800   -1.5680 n         1 MOL     -0.427238
     49 C16        -3.9570   -4.7230   -1.1140 c3        1 MOL      0.015049
     50 C17        -3.5710   -5.2570    0.2620 c         1 MOL      0.427794
     51 O10        -3.3020   -6.4740    0.4590 o         1 MOL     -0.537905
     52 C18        -2.7930   -5.0210   -2.1570 c3        1 MOL      0.077215
     53 C19        -1.5930   -4.1420   -2.0130 c         1 MOL      0.271618
     54 N6         -0.6580   -4.0590   -2.9720 n         1 MOL     -0.541885
     55 O11        -1.3250   -3.5330   -1.0090 o         1 MOL     -0.576627
     56 H20        -5.0670   -6.0890   -2.2680 hn        1 MOL      0.283985
     57 H21        -4.0490   -3.6380   -1.1040 h1        1 MOL      0.070320
     58 H22        -3.1980   -4.8570   -3.1520 hc        1 MOL      0.039538
     59 H23        -2.4980   -6.0700   -2.1600 hc        1 MOL      0.039538
     60 H24        -0.8140   -4.5420   -3.8440 hn        1 MOL      0.291928
     61 H25         0.2240   -3.5670   -2.9110 hn        1 MOL      0.291928
     62 N7         -3.5790   -4.3440    1.2200 n         1 MOL     -0.185158
     63 C20        -3.1130   -4.5480    2.6110 c3        1 MOL     -0.035293
     64 C21        -1.7060   -5.0790    2.8330 c         1 MOL      0.488628
     65 O12        -1.4060   -5.5620    3.9290 o         1 MOL     -0.541034
     66 H26        -3.9920   -3.4560    0.9910 hn        1 MOL      0.178476
     67 H27        -3.9280   -5.0210    3.1640 h1        1 MOL      0.053004
     68 H28        -2.9960   -3.5610    3.0580 h1        1 MOL      0.053004
     69 N8         -0.7990   -4.8920    1.7830 n         1 MOL     -0.281718
     70 C22         0.6650   -5.0530    1.8990 c3        1 MOL      0.060776
     71 C23         1.4120   -3.7570    1.7040 c         1 MOL      0.406641
     72 O13         0.8320   -2.8220    1.1140 o         1 MOL     -0.657965
     73 C24         1.1650   -6.0210    0.7930 c3        1 MOL      0.246257
     74 C25         0.6400   -7.3850    1.2590 c3        1 MOL     -0.435131
     75 O14         0.6000   -5.7000   -0.4380 oh        1 MOL     -0.507292
     76 H29        -1.0660   -4.4550    0.9190 hn        1 MOL      0.316474
     77 H30         0.8610   -5.4550    2.8910 h1        1 MOL      0.035144
     78 H31         2.2510   -6.0360    0.6780 h1        1 MOL      0.011492
     79 H32         1.1560   -5.0190   -0.8180 ho        1 MOL      0.427756
     80 H33         0.7440   -8.0840    0.4340 hc        1 MOL      0.105532
     81 H34         1.2370   -7.7200    2.1100 hc        1 MOL      0.105532
     82 H35        -0.4420   -7.3450    1.3460 hc        1 MOL      0.105532
     83 N9          2.6020   -3.6760    2.2330 n         1 MOL     -0.345139
     84 C26         3.4090   -2.4460    2.1510 c3        1 MOL      0.250521
     85 C27         4.3850   -2.6120    0.9950 c         1 MOL      0.299204
     86 O15         5.3560   -3.2800    1.1380 o         1 MOL     -0.541754
     87 C28         3.9930   -2.0730    3.5770 c3        1 MOL      0.067437
     88 C29         4.9690   -0.8410    3.4510 c3        1 MOL     -0.037046
     89 C30         2.8230   -1.8170    4.5160 c3        1 MOL     -0.235456
     90 C31         4.4550    0.4230    2.8770 c3        1 MOL     -0.068222
     91 H36         3.0160   -4.5310    2.5850 hn        1 MOL      0.243798
     92 H37         2.7310   -1.6260    1.8980 h1        1 MOL      0.073877
     93 H38         4.6700   -2.8610    3.9060 hc        1 MOL     -0.008528
     94 H39         5.8650   -1.1970    2.9540 hc        1 MOL      0.006635
     95 H40         5.3240   -0.5950    4.4520 hc        1 MOL      0.006635
     96 H41         2.3380   -2.7740    4.6690 hc        1 MOL      0.056591
     97 H42         3.1920   -1.6300    5.5290 hc        1 MOL      0.056591
     98 H43         2.1450   -1.0130    4.2250 hc        1 MOL      0.056591
     99 H44         3.7150    0.8900    3.5270 hc        1 MOL      0.006327
    100 H45         5.2620    1.1560    2.9480 hc        1 MOL      0.006327
    101 H46         4.1070    0.3650    1.8490 hc        1 MOL      0.006327
    102 N10         3.9980   -2.1540   -0.2130 n         1 MOL     -0.109356
    103 C32         4.6770   -2.4480   -1.4860 c3        1 MOL      0.036973
    104 C33         5.9040   -1.5350   -1.7330 c         1 MOL      0.444906
    105 O16         6.7400   -1.9130   -2.6140 o         1 MOL     -0.542568
    106 C34         3.6170   -2.4590   -2.6150 c3        1 MOL     -0.411091
    107 C35         2.2260   -2.9760   -2.2290 c         1 MOL      0.951211
    108 O17         1.9850   -4.1440   -1.8010 o         1 MOL     -0.778161
    109 O18         1.2880   -2.1240   -2.2850 o         1 MOL     -0.778161
    110 H47         3.2250   -1.5020   -0.2300 hn        1 MOL      0.136524
    111 H48         5.0160   -3.4840   -1.4090 h1        1 MOL      0.098916
    112 H49         3.9600   -3.2300   -3.3050 hc        1 MOL      0.099329
    113 H50         3.6050   -1.4790   -3.0910 hc        1 MOL      0.099329
    114 N11         5.9650   -0.4150   -1.0300 n         1 MOL     -0.354006
    115 C36         7.0310    0.6140   -1.0270 c3        1 MOL      0.248893
    116 C37         6.5090    1.9290   -0.3870 c         1 MOL      0.137740
    117 O19         5.8550    1.9680    0.6260 o         1 MOL     -0.376875
    118 C38         8.2220    0.1080   -0.1660 c3        1 MOL     -0.249695
    119 C39         9.5440    0.8150   -0.5490 ca        1 MOL      0.150779
    120 C40         9.8260    2.0910   -0.0270 ca        1 MOL     -0.205668
    121 C41        10.4620    0.2570   -1.4770 ca        1 MOL     -0.205668
    122 C42        10.9300    2.8360   -0.3920 ca        1 MOL     -0.074570
    123 C43        11.6300    0.9680   -1.7530 ca        1 MOL     -0.074570
    124 C44        11.8640    2.2720   -1.2780 ca        1 MOL     -0.162940
    125 H51         5.2480   -0.2770   -0.3250 hn        1 MOL      0.259774
    126 H52         7.3300    0.8340   -2.0530 h1        1 MOL      0.022964
    127 H53         8.4040   -0.9430   -0.3850 hc        1 MOL      0.113645
    128 H54         8.0410    0.1380    0.9140 hc        1 MOL      0.113645
    129 H55         9.1150    2.5650    0.6390 ha        1 MOL      0.142373
    130 H56        10.2720   -0.7100   -1.9090 ha        1 MOL      0.142373
    131 H57        10.9940    3.8780   -0.1030 ha        1 MOL      0.097049
    132 H58        12.3510    0.5290   -2.4200 ha        1 MOL      0.097049
    133 H59        12.6320    2.8700   -1.7490 ha        1 MOL      0.113695
    134 N12         6.8770    3.1260   -0.9290 n         1 MOL      0.070186
    135 C45         6.6950    4.4060   -0.2140 c3        1 MOL     -0.386945
    136 C46         5.3160    4.9180    0.1340 c         1 MOL      0.849081
    137 O20         5.2220    6.0690    0.5370 o         1 MOL     -0.609699
    138 C47         7.6250    5.4060   -0.9880 c3        1 MOL     -0.053896
    139 C48         7.4030    4.8900   -2.4650 c3        1 MOL     -0.073132
    140 C49         7.3980    3.3680   -2.2800 c3        1 MOL     -0.312893
    141 H60         7.2290    4.2170    0.7130 h1        1 MOL      0.117085
    142 H61         7.4540    6.4790   -1.0150 hc        1 MOL      0.080335
    143 H62         8.6920    5.2650   -0.8000 hc        1 MOL      0.080335
    144 H63         6.3820    5.0900   -2.8000 hc        1 MOL      0.063765
    145 H64         8.2240    5.1990   -3.1150 hc        1 MOL      0.063765
    146 H65         6.7050    2.9660   -3.0210 h1        1 MOL      0.143087
    147 H66         8.3820    2.9120   -2.3870 h1        1 MOL      0.143087
    148 N13         4.2270    4.1390    0.0330 n         1 MOL     -0.460523
    149 C50         2.8770    4.6890    0.1020 c3        1 MOL     -0.191542
    150 C51         2.5210    5.3800    1.4390 c         1 MOL      0.409218
    151 O21         1.4670    5.9440    1.6840 o         1 MOL     -0.536663
    152 C52         1.8960    3.5540   -0.0390 c3        1 MOL      0.119273
    153 C53         2.0690    2.4340    0.9810 c3        1 MOL     -0.025307
    154 C54         1.3060    1.1370    0.6820 c         1 MOL      0.667191
    155 O22         0.1220    1.0450    0.9440 o         1 MOL     -0.721269
    156 O23         1.8100    0.2090    0.0810 o         1 MOL     -0.721269
    157 H67         4.3610    3.1510   -0.1390 hn        1 MOL      0.319503
    158 H68         2.6550    5.4060   -0.6890 h1        1 MOL      0.122036
    159 H69         2.0230    3.1830   -1.0560 hc        1 MOL      0.011632
    160 H70         0.8700    3.9130   -0.0420 hc        1 MOL      0.011632
    161 H71         1.7900    2.8190    1.9610 hc        1 MOL     -0.005426
    162 H72         3.1290    2.1550    0.9850 hc        1 MOL     -0.005426
    163 N14         3.2980    5.1530    2.4770 n         1 MOL      0.010345
    164 C55         3.1630    5.6970    3.8180 c3        1 MOL     -0.130704
    165 H73         2.5430    6.5920    3.7850 h1        1 MOL      0.064241
    166 H74         2.6970    4.9560    4.4670 h1        1 MOL      0.064241
    167 H75         4.1490    5.9520    4.2070 h1        1 MOL      0.064241
    168 H76         4.0810    4.5830    2.1890 hn        1 MOL      0.086949
    169 Ca1        -0.4400   -1.0190   -0.5550 Ca        1 MOL      1.816292
    170 O24        -2.3030   -1.1770    1.3720 oh        1 MOL     -0.916636
    171 H77        -2.2250   -0.3980    1.9080 ho        1 MOL      0.432986
    172 H78        -3.1170   -1.5960    1.6550 ho        1 MOL      0.432986
    173 O25         0.0520    0.9050   -2.3830 oh        1 MOL     -0.916636
    174 H79         0.6800    0.8570   -3.1110 ho        1 MOL      0.432986
    175 H80        -0.3060    1.7880   -2.4400 ho        1 MOL      0.432986
@<TRIPOS>BOND
     1    1    2 1   
     2    1    4 1   
     3    1    5 1   
     4    1    6 1   
     5    2    3 2   
     6    2    7 1   
     7    7    8 1   
     8    7   15 1   
     9    8    9 1   
    10    8   11 1   
    11    8   16 1   
    12    9   10 2   
    13    9   19 1   
    14   11   12 1   
    15   11   17 1   
    16   11   18 1   
    17   12   13 1   
    18   12   14 1   
    19   19   20 1   
    20   19   24 1   
    21   20   21 1   
    22   20   23 1   
    23   20   25 1   
    24   21   22 2   
    25   21   29 1   
    26   23   26 1   
    27   23   27 1   
    28   23   28 1   
    29   29   30 1   
    30   29   37 1   
    31   30   31 1   
    32   30   33 1   
    33   30   38 1   
    34   31   32 2   
    35   31   41 1   
    36   33   34 1   
    37   33   39 1   
    38   33   40 1   
    39   34   35 1   
    40   34   36 1   
    41   41   42 1   
    42   41   45 1   
    43   42   43 1   
    44   42   46 1   
    45   42   47 1   
    46   43   44 2   
    47   43   48 1   
    48   48   49 1   
    49   48   56 1   
    50   49   50 1   
    51   49   52 1   
    52   49   57 1   
    53   50   51 2   
    54   50   62 1   
    55   52   53 1   
    56   52   58 1   
    57   52   59 1   
    58   53   54 1   
    59   53   55 2   
    60   54   60 1   
    61   54   61 1   
    62   62   63 1   
    63   62   66 1   
    64   63   64 1   
    65   63   67 1   
    66   63   68 1   
    67   64   65 2   
    68   64   69 1   
    69   69   70 1   
    70   69   76 1   
    71   70   71 1   
    72   70   73 1   
    73   70   77 1   
    74   71   72 2   
    75   71   83 1   
    76   73   74 1   
    77   73   75 1   
    78   73   78 1   
    79   74   80 1   
    80   74   81 1   
    81   74   82 1   
    82   75   79 1   
    83   83   84 1   
    84   83   91 1   
    85   84   85 1   
    86   84   87 1   
    87   84   92 1   
    88   85   86 2   
    89   85  102 1   
    90   87   88 1   
    91   87   89 1   
    92   87   93 1   
    93   88   90 1   
    94   88   94 1   
    95   88   95 1   
    96   89   96 1   
    97   89   97 1   
    98   89   98 1   
    99   90   99 1   
   100   90  100 1   
   101   90  101 1   
   102  102  103 1   
   103  102  110 1   
   104  103  104 1   
   105  103  106 1   
   106  103  111 1   
   107  104  105 2   
   108  104  114 1   
   109  106  107 1   
   110  106  112 1   
   111  106  113 1   
   112  107  108 1   
   113  107  109 1   
   114  114  115 1   
   115  114  125 1   
   116  115  116 1   
   117  115  118 1   
   118  115  126 1   
   119  116  117 2   
   120  116  134 1   
   121  118  119 1   
   122  118  127 1   
   123  118  128 1   
   124  119  120 ar  
   125  119  121 ar  
   126  120  122 ar  
   127  120  129 1   
   128  121  123 ar  
   129  121  130 1   
   130  122  124 ar  
   131  122  131 1   
   132  123  124 ar  
   133  123  132 1   
   134  124  133 1   
   135  134  135 1   
   136  134  140 1   
   137  135  136 1   
   138  135  138 1   
   139  135  141 1   
   140  136  137 2   
   141  136  148 1   
   142  138  139 1   
   143  138  142 1   
   144  138  143 1   
   145  139  140 1   
   146  139  144 1   
   147  139  145 1   
   148  140  146 1   
   149  140  147 1   
   150  148  149 1   
   151  148  157 1   
   152  149  150 1   
   153  149  152 1   
   154  149  158 1   
   155  150  151 2   
   156  150  163 1   
   157  152  153 1   
   158  152  159 1   
   159  152  160 1   
   160  153  154 1   
   161  153  161 1   
   162  153  162 1   
   163  154  155 1   
   164  154  156 1   
   165  163  164 1   
   166  163  168 1   
   167  164  165 1   
   168  164  166 1   
   169  164  167 1   
   170  170  171 1   
   171  170  172 1   
   172  173  174 1   
   173  173  175 1   
@<TRIPOS>SUBSTRUCTURE
     1 MOL         1 TEMP              0 ****  ****    0 ROOT
