@<TRIPOS>MOLECULE
MOL
  184   179     1     0     0
SMALL
resp


@<TRIPOS>ATOM
      1 C1         10.2510    6.6970    0.7500 c3        1 MOL     -0.408855
      2 C2          9.5580    5.4640    1.3330 c         1 MOL      0.713982
      3 O1          8.9260    5.5530    2.3970 o         1 MOL     -0.575664
      4 H1         10.4300    7.4220    1.5440 hc        1 MOL      0.104979
      5 H2         11.2030    6.4040    0.3060 hc        1 MOL      0.104979
      6 H3          9.6150    7.1450   -0.0140 hc        1 MOL      0.104979
      7 N1          9.6150    4.2500    0.6620 n         1 MOL     -0.759507
      8 C3         10.2490    3.8880   -0.6590 c3        1 MOL      0.418033
      9 C4         11.4000    2.8730   -0.4940 c         1 MOL      0.345815
     10 O2         12.1500    2.5950   -1.4700 o         1 MOL     -0.549670
     11 C5          9.2490    3.4720   -1.7680 c3        1 MOL     -0.313864
     12 C6          8.1320    2.6120   -1.2710 c         1 MOL      0.808046
     13 O3          6.9830    2.7380   -1.7510 o         1 MOL     -0.761732
     14 O4          8.3400    1.9790   -0.2100 o         1 MOL     -0.761732
     15 H4          8.8860    3.6300    0.9750 hn        1 MOL      0.395130
     16 H5         10.7970    4.7530   -1.0240 h1        1 MOL     -0.007151
     17 H6          9.8260    2.8790   -2.4860 hc        1 MOL      0.074542
     18 H7          8.9460    4.3760   -2.2900 hc        1 MOL      0.074542
     19 N2         11.4530    2.1320    0.6470 n         1 MOL     -0.366680
     20 C7         12.2850    0.9640    0.7720 c3        1 MOL      0.286125
     21 C8         11.6020   -0.3590    0.2040 c         1 MOL      0.307168
     22 O5         12.3090   -1.3760    0.1070 o         1 MOL     -0.539518
     23 C9         12.6040    0.7250    2.1830 c3        1 MOL     -0.374338
     24 H8         10.8130    2.1940    1.4200 hn        1 MOL      0.255172
     25 H9         13.2450    1.1610    0.3130 h1        1 MOL      0.050108
     26 H10        13.3010   -0.0950    2.3390 hc        1 MOL      0.097671
     27 H11        13.0070    1.7040    2.4470 hc        1 MOL      0.097671
     28 H12        11.7090    0.4970    2.7530 hc        1 MOL      0.097671
     29 N3         10.3170   -0.3600   -0.1580 n         1 MOL     -0.192525
     30 C10         9.5640   -1.6410   -0.4310 c3        1 MOL     -0.042425
     31 C11         8.5260   -1.5230   -1.5420 c         1 MOL      0.557422
     32 O6          8.0680   -0.4240   -1.9390 o         1 MOL     -0.609065
     33 C12         9.1270   -2.2410    0.9620 c3        1 MOL     -0.028508
     34 C13         8.3410   -1.2580    1.8030 c         1 MOL      0.627988
     35 O7          8.6240   -1.1680    3.0090 o         1 MOL     -0.681638
     36 O8          7.5280   -0.5600    1.2020 o         1 MOL     -0.681638
     37 H13         9.7130    0.4400   -0.0530 hn        1 MOL      0.263259
     38 H14        10.3200   -2.3050   -0.8470 h1        1 MOL      0.046357
     39 H15        10.0180   -2.6230    1.4510 hc        1 MOL      0.015989
     40 H16         8.5220   -3.1330    0.8110 hc        1 MOL      0.015989
     41 N4          8.0570   -2.6680   -2.0540 n         1 MOL     -0.443056
     42 C14         6.9350   -2.7280   -3.0390 c3        1 MOL     -0.140510
     43 C15         5.5870   -2.2600   -2.4180 c         1 MOL      0.747585
     44 O9          5.5530   -1.6830   -1.2770 o         1 MOL     -0.658288
     45 H17         8.3880   -3.5320   -1.6580 hn        1 MOL      0.299412
     46 H18         6.8220   -3.7590   -3.3770 h1        1 MOL      0.119520
     47 H19         7.1520   -2.1250   -3.9260 h1        1 MOL      0.119520
     48 N5          4.5100   -2.6320   -3.0380 n         1 MOL     -0.791928
     49 C16         3.0910   -2.4650   -2.6200 c3        1 MOL      0.815019
     50 C17         2.6010   -3.3680   -1.4540 c         1 MOL      0.583940
     51 O10         3.1210   -4.4670   -1.3580 o         1 MOL     -0.528122
     52 C18         2.1030   -2.5510   -3.8310 c3        1 MOL     -0.394969
     53 C19         1.9040   -3.8910   -4.5880 c         1 MOL      0.499050
     54 N6          0.7210   -4.0890   -5.0770 n         1 MOL     -0.616031
     55 O11         2.7230   -4.8090   -4.5250 o         1 MOL     -0.527554
     56 H20         4.6250   -3.1300   -3.9160 hn        1 MOL      0.308786
     57 H21         3.0320   -1.4680   -2.1830 h1        1 MOL     -0.263735
     58 H22         2.5080   -1.7890   -4.4850 hc        1 MOL      0.103771
     59 H23         1.0940   -2.1860   -3.6420 hc        1 MOL      0.103771
     60 H24         0.1360   -3.2640   -5.1500 hn        1 MOL      0.344968
     61 H25         0.6160   -4.9020   -5.6780 hn        1 MOL      0.344968
     62 N7          1.6020   -2.9120   -0.6060 n         1 MOL     -0.693574
     63 C20         1.0750   -3.7560    0.5370 c3        1 MOL      0.318851
     64 C21         0.9760   -3.0690    1.8730 c         1 MOL      0.491078
     65 O12         1.6950   -2.0860    2.1620 o         1 MOL     -0.575236
     66 H26         1.1770   -2.0230   -0.8150 hn        1 MOL      0.348709
     67 H27         1.6600   -4.6730    0.6390 h1        1 MOL      0.037972
     68 H28         0.0880   -4.0730    0.1890 h1        1 MOL      0.037972
     69 N8          0.1260   -3.4920    2.8030 n         1 MOL     -0.435576
     70 C22        -1.0100   -4.4210    2.7020 c3        1 MOL     -0.136211
     71 C23        -2.2160   -3.7210    1.9920 c         1 MOL      0.576128
     72 O13        -2.7490   -4.3640    1.0660 o         1 MOL     -0.573908
     73 C24        -1.4050   -5.0420    4.0660 c3        1 MOL      0.339967
     74 C25        -0.3240   -5.9610    4.6840 c3        1 MOL     -0.383847
     75 O14        -1.4920   -3.9630    5.0720 oh        1 MOL     -0.599534
     76 H29         0.0910   -2.8620    3.5850 hn        1 MOL      0.322851
     77 H30        -0.6960   -5.2150    2.0180 h1        1 MOL      0.080124
     78 H31        -2.3220   -5.6250    4.0370 h1        1 MOL      0.025302
     79 H32        -2.2280   -4.1540    5.6590 ho        1 MOL      0.399529
     80 H33        -0.6360   -6.1120    5.7150 hc        1 MOL      0.100013
     81 H34        -0.2930   -6.9230    4.1760 hc        1 MOL      0.100013
     82 H35         0.6600   -5.4940    4.7240 hc        1 MOL      0.100013
     83 N9         -2.5920   -2.5500    2.4740 n         1 MOL     -0.455052
     84 C26        -3.8300   -1.7650    2.1970 c3        1 MOL      0.081856
     85 C27        -3.5230   -0.7260    1.0060 c         1 MOL      0.651434
     86 O15        -2.7310    0.1660    1.2450 o         1 MOL     -0.576010
     87 C28        -4.4720   -1.1030    3.4200 c3        1 MOL     -0.017050
     88 C29        -4.4020   -1.7820    4.7700 c3        1 MOL     -0.076072
     89 C30        -5.9740   -0.8070    3.1900 c3        1 MOL      0.044811
     90 C31        -5.1520   -3.0850    5.0540 c3        1 MOL     -0.338610
     91 H36        -2.0640   -2.2460    3.2840 hn        1 MOL      0.294359
     92 H37        -4.5100   -2.4770    1.7140 h1        1 MOL      0.069488
     93 H38        -4.0930   -0.0810    3.4850 hc        1 MOL      0.047810
     94 H39        -4.7980   -1.1180    5.5370 hc        1 MOL      0.053486
     95 H40        -3.3460   -1.8200    5.0420 hc        1 MOL      0.053486
     96 H41        -6.3500   -0.2840    4.0700 hc        1 MOL      0.005781
     97 H42        -6.1020   -0.1600    2.3240 hc        1 MOL      0.005781
     98 H43        -6.5140   -1.7390    3.0050 hc        1 MOL      0.005781
     99 H44        -4.9060   -3.8780    4.3480 hc        1 MOL      0.079570
    100 H45        -4.8120   -3.4560    6.0260 hc        1 MOL      0.079570
    101 H46        -6.1940   -2.7570    5.1110 hc        1 MOL      0.079570
    102 N10        -4.0720   -0.8040   -0.2280 n         1 MOL     -0.577350
    103 C32        -5.2010   -1.6720   -0.6300 c3        1 MOL      0.091718
    104 C33        -6.3930   -0.8310   -1.0690 c         1 MOL      0.595279
    105 O16        -6.2530    0.3080   -1.5660 o         1 MOL     -0.541337
    106 C34        -4.7110   -2.5480   -1.7410 c3        1 MOL     -0.153729
    107 C35        -4.0870   -1.8980   -2.9800 c         1 MOL      0.722870
    108 O17        -2.8780   -1.5650   -2.9050 o         1 MOL     -0.734683
    109 O18        -4.6740   -1.9710   -4.1090 o         1 MOL     -0.734683
    110 H47        -3.8670   -0.0810   -0.8950 hn        1 MOL      0.343567
    111 H48        -5.4960   -2.2650    0.2240 h1        1 MOL      0.027616
    112 H49        -5.5770   -3.1450   -2.0140 hc        1 MOL      0.015526
    113 H50        -3.9840   -3.2130   -1.2910 hc        1 MOL      0.015526
    114 N11        -7.6080   -1.3470   -0.7690 n         1 MOL     -0.767151
    115 C36        -8.9080   -0.6470   -1.0880 c3        1 MOL      0.665471
    116 C37        -9.4490    0.1430    0.1510 c         1 MOL      0.131335
    117 O19        -9.3030   -0.3550    1.2690 o         1 MOL     -0.513007
    118 C38        -9.8260   -1.7410   -1.6610 c3        1 MOL     -0.074720
    119 C39       -11.2600   -1.3640   -1.7560 ca        1 MOL      0.013500
    120 C40       -12.1840   -1.6220   -0.6860 ca        1 MOL     -0.148631
    121 C41       -11.6320   -0.5380   -2.8370 ca        1 MOL     -0.148631
    122 C42       -13.4340   -0.9710   -0.7230 ca        1 MOL     -0.121685
    123 C43       -12.9230    0.0550   -2.8640 ca        1 MOL     -0.121685
    124 C44       -13.8270   -0.2340   -1.8290 ca        1 MOL     -0.117863
    125 H51        -7.6160   -2.2940   -0.4000 hn        1 MOL      0.344074
    126 H52        -8.6250    0.0590   -1.8660 h1        1 MOL     -0.054308
    127 H53        -9.6750   -2.6230   -1.0330 hc        1 MOL      0.010447
    128 H54        -9.4900   -1.9800   -2.6740 hc        1 MOL      0.010447
    129 H55       -11.9120   -2.3210    0.0860 ha        1 MOL      0.133480
    130 H56       -10.9200   -0.3660   -3.6400 ha        1 MOL      0.133480
    131 H57       -14.1270   -1.2010    0.0760 ha        1 MOL      0.106919
    132 H58       -13.1750    0.7670   -3.6440 ha        1 MOL      0.106919
    133 H59       -14.8140    0.2060   -1.7960 ha        1 MOL      0.099814
    134 N12        -9.8610    1.4080   -0.0390 n         1 MOL      0.037106
    135 C45        -9.8120    2.2440   -1.2260 c3        1 MOL     -0.041224
    136 C46        -8.4670    2.9920   -1.2820 c         1 MOL      0.667995
    137 O20        -8.1120    3.5440   -2.3570 o         1 MOL     -0.573067
    138 C47       -11.0930    3.0810   -1.1240 c3        1 MOL     -0.070080
    139 C48       -11.0110    3.3710    0.3850 c3        1 MOL     -0.026194
    140 C49       -10.6750    2.0650    1.0080 c3        1 MOL     -0.009816
    141 H60        -9.9010    1.6190   -2.1160 h1        1 MOL     -0.003133
    142 H61       -11.0600    4.0040   -1.7000 hc        1 MOL      0.041961
    143 H62       -12.0330    2.5440   -1.3010 hc        1 MOL      0.041961
    144 H63       -10.1150    3.9590    0.5890 hc        1 MOL      0.012769
    145 H64       -11.9190    3.7370    0.8580 hc        1 MOL      0.012769
    146 H65       -10.0490    2.2600    1.8850 h1        1 MOL      0.042174
    147 H66       -11.5410    1.4980    1.3290 h1        1 MOL      0.042174
    148 N13        -7.7680    3.1450   -0.1020 n         1 MOL     -0.440333
    149 C50        -6.6640    4.0490    0.0630 c3        1 MOL     -0.063941
    150 C51        -7.0640    5.4650   -0.3640 c         1 MOL      0.552247
    151 O21        -7.8900    6.1050    0.2790 o         1 MOL     -0.602919
    152 C52        -6.3620    4.1390    1.5840 c3        1 MOL     -0.069251
    153 C53        -5.6020    2.9780    2.0550 c3        1 MOL     -0.101957
    154 C54        -4.8820    3.2360    3.4280 c         1 MOL      0.720390
    155 O22        -5.6010    3.2510    4.4760 o         1 MOL     -0.734895
    156 O23        -3.6340    3.4390    3.5010 o         1 MOL     -0.734895
    157 H67        -8.0550    2.6380    0.7210 hn        1 MOL      0.355995
    158 H68        -5.7410    3.8380   -0.4750 h1        1 MOL      0.154603
    159 H69        -7.2500    4.3450    2.1820 hc        1 MOL      0.040259
    160 H70        -5.7320    5.0110    1.7430 hc        1 MOL      0.040259
    161 H71        -4.9280    2.6100    1.2820 hc        1 MOL     -0.013496
    162 H72        -6.3120    2.1920    2.3340 hc        1 MOL     -0.013496
    163 N14        -6.5790    6.0660   -1.4240 n         1 MOL     -0.444994
    164 C55        -5.9130    5.3920   -2.6160 c3        1 MOL     -0.068651
    165 H73        -5.4040    4.4870   -2.2830 h1        1 MOL      0.067695
    166 H74        -6.6700    5.1310   -3.3560 h1        1 MOL      0.067695
    167 H75        -5.1880    6.0720   -3.0620 h1        1 MOL      0.067695
    168 H76        -6.9250    7.0060   -1.5700 hn        1 MOL      0.295644
    169 Ca1         5.9540    0.7830   -0.3430 Ca        1 MOL      1.778947
    170 O24         4.3270    2.8500   -0.4150 oh        1 MOL     -0.792470
    171 H77         3.6230    3.4270   -0.1030 ho        1 MOL      0.396998
    172 H78         4.3390    2.9880   -1.3660 ho        1 MOL      0.396998
    173 O25         4.3430   -0.3310    1.6480 oh        1 MOL     -0.792470
    174 H79         3.9770   -0.1210    2.5090 ho        1 MOL      0.396998
    175 H80         3.8540   -1.0970    1.3530 ho        1 MOL      0.396998
    176 O26         6.0830    2.1790    2.1050 oh        1 MOL     -0.792470
    177 H81         6.5660    1.6480    2.7220 ho        1 MOL      0.396998
    178 H82         5.2690    2.4080    2.5550 ho        1 MOL      0.396998
    179 O27         2.7940    0.5780   -0.5340 oh        1 MOL     -0.792470
    180 H83         2.8460    1.5000   -0.2630 ho        1 MOL      0.396998
    181 H84         1.9720    0.5190   -1.0320 ho        1 MOL      0.396998
    182 O28         4.8560    1.0850   -2.6560 oh        1 MOL     -0.792470
    183 H85         4.7700    1.9700   -3.0020 ho        1 MOL      0.396998
    184 H86         4.1580    0.5820   -3.0760 ho        1 MOL      0.396998
@<TRIPOS>BOND
     1    1    2 1   
     2    1    4 1   
     3    1    5 1   
     4    1    6 1   
     5    2    3 2   
     6    2    7 1   
     7    7    8 1   
     8    7   15 1   
     9    8    9 1   
    10    8   11 1   
    11    8   16 1   
    12    9   10 2   
    13    9   19 1   
    14   11   12 1   
    15   11   17 1   
    16   11   18 1   
    17   12   13 1   
    18   12   14 1   
    19   19   20 1   
    20   19   24 1   
    21   20   21 1   
    22   20   23 1   
    23   20   25 1   
    24   21   22 2   
    25   21   29 1   
    26   23   26 1   
    27   23   27 1   
    28   23   28 1   
    29   29   30 1   
    30   29   37 1   
    31   30   31 1   
    32   30   33 1   
    33   30   38 1   
    34   31   32 2   
    35   31   41 1   
    36   33   34 1   
    37   33   39 1   
    38   33   40 1   
    39   34   35 1   
    40   34   36 1   
    41   41   42 1   
    42   41   45 1   
    43   42   43 1   
    44   42   46 1   
    45   42   47 1   
    46   43   44 2   
    47   43   48 1   
    48   48   49 1   
    49   48   56 1   
    50   49   50 1   
    51   49   52 1   
    52   49   57 1   
    53   50   51 2   
    54   50   62 1   
    55   52   53 1   
    56   52   58 1   
    57   52   59 1   
    58   53   54 1   
    59   53   55 2   
    60   54   60 1   
    61   54   61 1   
    62   62   63 1   
    63   62   66 1   
    64   63   64 1   
    65   63   67 1   
    66   63   68 1   
    67   64   65 2   
    68   64   69 1   
    69   69   70 1   
    70   69   76 1   
    71   70   71 1   
    72   70   73 1   
    73   70   77 1   
    74   71   72 2   
    75   71   83 1   
    76   73   74 1   
    77   73   75 1   
    78   73   78 1   
    79   74   80 1   
    80   74   81 1   
    81   74   82 1   
    82   75   79 1   
    83   83   84 1   
    84   83   91 1   
    85   84   85 1   
    86   84   87 1   
    87   84   92 1   
    88   85   86 2   
    89   85  102 1   
    90   87   88 1   
    91   87   89 1   
    92   87   93 1   
    93   88   90 1   
    94   88   94 1   
    95   88   95 1   
    96   89   96 1   
    97   89   97 1   
    98   89   98 1   
    99   90   99 1   
   100   90  100 1   
   101   90  101 1   
   102  102  103 1   
   103  102  110 1   
   104  103  104 1   
   105  103  106 1   
   106  103  111 1   
   107  104  105 2   
   108  104  114 1   
   109  106  107 1   
   110  106  112 1   
   111  106  113 1   
   112  107  108 1   
   113  107  109 1   
   114  114  115 1   
   115  114  125 1   
   116  115  116 1   
   117  115  118 1   
   118  115  126 1   
   119  116  117 2   
   120  116  134 1   
   121  118  119 1   
   122  118  127 1   
   123  118  128 1   
   124  119  120 ar  
   125  119  121 ar  
   126  120  122 ar  
   127  120  129 1   
   128  121  123 ar  
   129  121  130 1   
   130  122  124 ar  
   131  122  131 1   
   132  123  124 ar  
   133  123  132 1   
   134  124  133 1   
   135  134  135 1   
   136  134  140 1   
   137  135  136 1   
   138  135  138 1   
   139  135  141 1   
   140  136  137 2   
   141  136  148 1   
   142  138  139 1   
   143  138  142 1   
   144  138  143 1   
   145  139  140 1   
   146  139  144 1   
   147  139  145 1   
   148  140  146 1   
   149  140  147 1   
   150  148  149 1   
   151  148  157 1   
   152  149  150 1   
   153  149  152 1   
   154  149  158 1   
   155  150  151 2   
   156  150  163 1   
   157  152  153 1   
   158  152  159 1   
   159  152  160 1   
   160  153  154 1   
   161  153  161 1   
   162  153  162 1   
   163  154  155 1   
   164  154  156 1   
   165  163  164 1   
   166  163  168 1   
   167  164  165 1   
   168  164  166 1   
   169  164  167 1   
   170  170  171 1   
   171  170  172 1   
   172  173  174 1   
   173  173  175 1   
   174  176  177 1   
   175  176  178 1   
   176  179  180 1   
   177  179  181 1   
   178  182  183 1   
   179  182  184 1   
@<TRIPOS>SUBSTRUCTURE
     1 MOL         1 TEMP              0 ****  ****    0 ROOT
