@<TRIPOS>MOLECULE
MOL
  189   185     1     0     0
SMALL
resp


@<TRIPOS>ATOM
      1 C1         11.3500    5.0750   -3.4600 c3        1 MOL     -0.735839
      2 C2         11.0430    3.9140   -2.5680 c         1 MOL      1.037140
      3 O1         11.2920    2.7510   -2.8730 o         1 MOL     -0.660678
      4 H1         11.8110    5.8700   -2.8730 hc        1 MOL      0.177912
      5 H2         12.0370    4.7600   -4.2450 hc        1 MOL      0.177912
      6 H3         10.4280    5.4440   -3.9090 hc        1 MOL      0.177912
      7 N1         10.6070    4.1680   -1.3280 n         1 MOL     -0.540923
      8 C3         10.2870    3.1330   -0.3380 c3        1 MOL     -0.627800
      9 C4          9.1820    2.2330   -0.8400 c         1 MOL      0.458373
     10 O2          8.0470    2.6240   -1.1630 o         1 MOL     -0.502813
     11 C5          9.9370    3.7410    1.0630 c3        1 MOL      0.842182
     12 C6          9.4230    5.1420    1.1270 c         1 MOL      0.380986
     13 O3          8.7430    5.5510    0.1490 o         1 MOL     -0.645445
     14 O4          9.9230    5.9190    2.0080 o         1 MOL     -0.645445
     15 H4         10.5150    5.1300   -1.0380 hn        1 MOL      0.286127
     16 H5         11.1200    2.4840   -0.0530 h1        1 MOL      0.203564
     17 H6         10.8150    3.6160    1.6900 hc        1 MOL     -0.124802
     18 H7          9.1870    3.1530    1.5960 hc        1 MOL     -0.124802
     19 N2          9.2660    0.9200   -0.6400 n         1 MOL     -0.260824
     20 C7          8.4110   -0.1250   -1.1960 c3        1 MOL      0.273580
     21 C8          7.4360   -0.6220   -0.1230 c         1 MOL      0.224136
     22 O5          7.4230   -1.7110    0.4140 o         1 MOL     -0.501802
     23 C9          9.3720   -1.2130   -1.6080 c3        1 MOL     -0.136009
     24 C10         8.8410   -2.3400   -2.4920 c3        1 MOL     -0.167668
     25 C11         9.9310   -3.4360   -2.6770 c3        1 MOL      0.145548
     26 C12         9.3840   -4.5160   -3.6040 c3        1 MOL      0.135088
     27 N3         10.3380   -5.5860   -3.9480 n4        1 MOL     -0.471732
     28 H8         10.0120    0.5870   -0.0550 hn        1 MOL      0.187819
     29 H9          7.9170    0.1990   -2.1050 h1        1 MOL      0.079303
     30 H10         9.9500   -1.6610   -0.8140 hc        1 MOL      0.063176
     31 H11        10.1330   -0.7570   -2.2320 hc        1 MOL      0.063176
     32 H12         8.6760   -1.9440   -3.4950 hc        1 MOL      0.040243
     33 H13         7.9780   -2.8440   -2.0580 hc        1 MOL      0.040243
     34 H14        10.2080   -3.9480   -1.7580 hc        1 MOL     -0.004044
     35 H15        10.8040   -2.9370   -3.1020 hc        1 MOL     -0.004044
     36 H16         9.0950   -4.1120   -4.5770 hx        1 MOL      0.045723
     37 H17         8.4800   -4.9480   -3.1770 hx        1 MOL      0.045723
     38 H18        11.1270   -5.1880   -4.4290 hn        1 MOL      0.303779
     39 H19        10.4690   -6.0890   -3.0820 hn        1 MOL      0.303779
     40 H20         9.9360   -6.2360   -4.6170 hn        1 MOL      0.303779
     41 N4          6.7520    0.3170    0.4800 n         1 MOL      0.316138
     42 C13         5.6480    0.1960    1.4530 c3        1 MOL     -0.429207
     43 C14         4.2910    0.2910    0.7930 c         1 MOL      0.682339
     44 O6          4.1720    0.7100   -0.3800 o         1 MOL     -0.644605
     45 C15         5.8650    1.1560    2.7140 c3        1 MOL      0.028155
     46 C16         6.3060    2.5360    2.2570 c         1 MOL      0.424636
     47 O7          6.1450    2.9580    1.0940 o         1 MOL     -0.615185
     48 O8          6.9520    3.1530    3.1130 o         1 MOL     -0.615185
     49 H21         6.7990    1.1950   -0.0290 hn        1 MOL     -0.161611
     50 H22         5.5770   -0.8300    1.8360 h1        1 MOL      0.144731
     51 H23         6.6930    0.7580    3.3010 hc        1 MOL      0.078036
     52 H24         4.9170    1.3480    3.2210 hc        1 MOL      0.078036
     53 N5          3.1930    0.0170    1.5340 n         1 MOL     -0.515347
     54 C17         3.0520   -0.7800    2.7980 c3        1 MOL      0.153723
     55 C18         3.1440   -2.3160    2.5490 c         1 MOL      0.586171
     56 O9          3.2960   -2.8830    1.4250 o         1 MOL     -0.543792
     57 H25         2.3380    0.2540    1.0580 hn        1 MOL      0.304608
     58 H26         2.0300   -0.6410    3.1500 h1        1 MOL      0.041911
     59 H27         3.7540   -0.4280    3.5570 h1        1 MOL      0.041911
     60 N6          3.0660   -3.0550    3.6650 n         1 MOL     -0.454556
     61 C19         3.2200   -4.4930    3.6910 c3        1 MOL     -0.032066
     62 C20         2.0860   -5.0530    2.7720 c         1 MOL      0.526342
     63 O10         0.8600   -4.8400    2.9300 o         1 MOL     -0.493391
     64 C21         3.1810   -5.1330    5.1160 c3        1 MOL     -0.242570
     65 C22         4.1810   -4.5320    6.1650 c         1 MOL      0.737830
     66 O11         3.8530   -3.6080    6.9400 o         1 MOL     -0.650909
     67 O12         5.2270   -5.1420    6.3160 o         1 MOL     -0.650909
     68 H28         2.7520   -2.5670    4.5070 hn        1 MOL      0.277772
     69 H29         4.1930   -4.6790    3.2360 h1        1 MOL      0.084451
     70 H30         3.4240   -6.1750    4.9420 hc        1 MOL      0.078570
     71 H31         2.1660   -5.0830    5.5200 hc        1 MOL      0.078570
     72 N7          2.4480   -5.8110    1.7020 n         1 MOL     -0.447947
     73 C23         1.5050   -6.4120    0.7980 c3        1 MOL     -0.023143
     74 C24         0.6540   -5.5300   -0.0970 c         1 MOL      0.387958
     75 O13        -0.2690   -5.9890   -0.7280 o         1 MOL     -0.562101
     76 H32         3.3730   -6.2060    1.8080 hn        1 MOL      0.282734
     77 H33         0.8310   -7.0240    1.3820 h1        1 MOL      0.087430
     78 H34         1.9930   -7.1820    0.1990 h1        1 MOL      0.087430
     79 N8          0.9570   -4.2260   -0.2480 n         1 MOL     -0.019097
     80 C25         0.3680   -3.2980   -1.1650 c3        1 MOL     -0.077439
     81 C26        -0.3770   -2.2400   -0.3780 c         1 MOL      0.391683
     82 O14         0.1640   -1.5620    0.5170 o         1 MOL     -0.513094
     83 C27         1.5210   -2.5040   -1.8700 c3        1 MOL      0.539193
     84 C28         2.1990   -3.4250   -2.8370 c3        1 MOL     -0.410574
     85 O15         0.9920   -1.4550   -2.7080 oh        1 MOL     -0.646617
     86 H35         1.7100   -3.8140    0.2820 hn        1 MOL      0.082393
     87 H36        -0.1870   -3.7960   -1.9530 h1        1 MOL      0.099267
     88 H37         2.1690   -2.1430   -1.0740 h1        1 MOL     -0.031708
     89 H38         1.7760   -0.9100   -2.7510 ho        1 MOL      0.376753
     90 H39         2.7160   -4.2570   -2.3470 hc        1 MOL      0.076640
     91 H40         1.4410   -3.7110   -3.5600 hc        1 MOL      0.076640
     92 H41         3.0080   -2.7780   -3.1660 hc        1 MOL      0.076640
     93 N9         -1.6360   -2.0820   -0.7000 n         1 MOL     -0.350325
     94 C29        -2.6060   -1.2620   -0.0170 c3        1 MOL     -0.063875
     95 C30        -3.9530   -1.9410    0.2740 c         1 MOL      0.582254
     96 O16        -4.5080   -1.6740    1.2790 o         1 MOL     -0.556352
     97 C31        -2.7700    0.1170   -0.7690 c3        1 MOL     -0.011607
     98 C32        -3.2850    1.2510    0.1170 c3        1 MOL      0.217033
     99 C33        -3.5390   -0.0630   -2.1430 c3        1 MOL     -0.244620
    100 C34        -2.8830    2.5890   -0.4500 c3        1 MOL     -0.342598
    101 H42        -1.8570   -2.6540   -1.4950 hn        1 MOL      0.241886
    102 H43        -2.2560   -0.9870    0.9830 h1        1 MOL      0.122613
    103 H44        -1.8020    0.3850   -1.1850 hc        1 MOL      0.062372
    104 H45        -2.9380    1.1590    1.1430 hc        1 MOL     -0.007544
    105 H46        -4.3710    1.1640    0.1530 hc        1 MOL     -0.007544
    106 H47        -3.1130   -0.9010   -2.6940 hc        1 MOL      0.053722
    107 H48        -4.5840   -0.3110   -1.9670 hc        1 MOL      0.053722
    108 H49        -3.4030    0.8340   -2.7500 hc        1 MOL      0.053722
    109 H50        -3.1190    2.7560   -1.4910 hc        1 MOL      0.081040
    110 H51        -3.4740    3.3470    0.0750 hc        1 MOL      0.081040
    111 H52        -1.8030    2.6430   -0.2950 hc        1 MOL      0.081040
    112 N10        -4.3700   -2.7770   -0.6130 n         1 MOL     -0.204177
    113 C35        -5.6650   -3.4920   -0.5500 c3        1 MOL     -0.188729
    114 C36        -6.5160   -3.0720   -1.7460 c         1 MOL      0.469786
    115 O17        -6.2890   -3.4220   -2.8740 o         1 MOL     -0.501496
    116 C37        -5.5050   -5.0280   -0.4550 c3        1 MOL      0.511724
    117 C38        -4.1600   -5.5740   -0.0780 c3        1 MOL     -0.108665
    118 O18        -6.3510   -5.5800    0.4550 oh        1 MOL     -0.742245
    119 H53        -3.8820   -2.9080   -1.4830 hn        1 MOL      0.230000
    120 H54        -6.2470   -3.1470    0.3000 h1        1 MOL      0.162701
    121 H55        -5.7030   -5.5300   -1.4040 h1        1 MOL     -0.045778
    122 H56        -6.5580   -6.5070    0.3380 ho        1 MOL      0.435042
    123 H57        -4.3290   -6.6360    0.0770 hc        1 MOL      0.017085
    124 H58        -3.5690   -5.3370   -0.9640 hc        1 MOL      0.017085
    125 H59        -3.5920   -5.0080    0.6580 hc        1 MOL      0.017085
    126 N11        -7.6120   -2.2670   -1.5260 n         1 MOL     -0.419707
    127 C39        -8.4430   -1.6520   -2.5570 c3        1 MOL     -0.030273
    128 C40        -8.8000   -0.1230   -2.2750 c         1 MOL      0.654775
    129 O19        -8.8670    0.7110   -3.1580 o         1 MOL     -0.570235
    130 C41        -9.7460   -2.3780   -2.8290 c3        1 MOL      0.315261
    131 C42       -10.3790   -1.8070   -4.0330 c3        1 MOL     -0.488524
    132 O20       -10.5890   -2.3320   -1.6880 oh        1 MOL     -0.623816
    133 H60        -7.8190   -1.9520   -0.5930 hn        1 MOL      0.219808
    134 H61        -7.9200   -1.6590   -3.5130 h1        1 MOL      0.097610
    135 H62        -9.5620   -3.4360   -3.0050 h1        1 MOL      0.056317
    136 H63       -10.5490   -3.1280   -1.1680 ho        1 MOL      0.376294
    137 H64        -9.7230   -1.8080   -4.9050 hc        1 MOL      0.138596
    138 H65       -11.1120   -2.5420   -4.3700 hc        1 MOL      0.138596
    139 H66       -10.8010   -0.8100   -3.8660 hc        1 MOL      0.138596
    140 N12        -9.0790    0.2200   -1.0270 n         1 MOL     -0.576717
    141 C43        -9.5110    1.5780   -0.6430 c3        1 MOL      0.190165
    142 C44        -8.6230    2.3200    0.3890 c         1 MOL      0.509500
    143 O21        -7.9200    1.6500    1.2010 o         1 MOL     -0.495612
    144 C45       -10.9030    1.3380    0.0010 c3        1 MOL     -0.275237
    145 C46       -12.0790    1.0810   -0.9840 c3        1 MOL      0.023609
    146 C47       -13.3300    0.5280   -0.3650 c3        1 MOL     -0.104303
    147 C48       -13.1110   -0.9490    0.0520 c3        1 MOL      0.078871
    148 N13       -14.4140   -1.6300    0.5080 n4        1 MOL     -0.283137
    149 H67        -9.2160   -0.5120   -0.3430 hn        1 MOL      0.325341
    150 H68        -9.5160    2.2430   -1.5070 h1        1 MOL      0.085099
    151 H69       -11.1470    2.1660    0.6540 hc        1 MOL      0.090367
    152 H70       -10.8980    0.5060    0.6950 hc        1 MOL      0.090367
    153 H71       -11.7080    0.3760   -1.7290 hc        1 MOL      0.046751
    154 H72       -12.3420    1.9910   -1.5120 hc        1 MOL      0.046751
    155 H73       -14.1590    0.6120   -1.0710 hc        1 MOL      0.053541
    156 H74       -13.6360    1.1800    0.4590 hc        1 MOL      0.053541
    157 H75       -12.3620   -0.9830    0.8400 hx        1 MOL      0.068040
    158 H76       -12.6280   -1.4750   -0.7630 hx        1 MOL      0.068040
    159 H77       -14.7360   -1.1120    1.3200 hn        1 MOL      0.234519
    160 H78       -15.1290   -1.7000   -0.1990 hn        1 MOL      0.234519
    161 H79       -14.2740   -2.5620    0.8600 hn        1 MOL      0.234519
    162 N14        -8.7730    3.6750    0.4430 n         1 MOL     -0.499654
    163 C49        -8.0300    4.4500    1.4000 c3        1 MOL      0.206566
    164 C50        -6.4610    4.3540    1.3060 c         1 MOL      0.242704
    165 O22        -5.7770    4.1000    2.3190 o         1 MOL     -0.497337
    166 C51        -8.4610    5.9480    1.2140 c3        1 MOL      0.028426
    167 C52        -7.8860    6.8950    2.3090 c3        1 MOL     -0.370805
    168 C53        -8.5720    8.2390    2.4060 c         1 MOL      0.847026
    169 O23        -8.7150    8.8320    3.4290 o         1 MOL     -0.674684
    170 O24        -9.0780    8.7210    1.3680 o         1 MOL     -0.674684
    171 H80        -9.4150    4.1020   -0.2060 hn        1 MOL      0.260880
    172 H81        -8.2810    4.1680    2.4270 h1        1 MOL      0.057708
    173 H82        -9.5500    6.0240    1.2300 hc        1 MOL      0.006427
    174 H83        -8.0820    6.2170    0.2250 hc        1 MOL      0.006427
    175 H84        -6.8350    6.8860    2.0370 hc        1 MOL      0.087537
    176 H85        -8.1550    6.4090    3.2460 hc        1 MOL      0.087537
    177 N15        -5.7560    4.5900    0.1820 n         1 MOL     -0.025617
    178 C54        -6.3080    4.8830   -1.1710 c3        1 MOL     -0.345472
    179 H86        -6.8300    4.0030   -1.5490 h1        1 MOL      0.120775
    180 H87        -7.0040    5.7180   -1.1070 h1        1 MOL      0.120775
    181 H88        -5.4930    5.1390   -1.8490 h1        1 MOL      0.120775
    182 H89        -4.7560    4.5140    0.2520 hn        1 MOL      0.167127
    183 Ca1         6.4550    4.6980   -0.7120 Ca        1 MOL      1.673738
    184 O25         5.1560    2.7060   -1.9550 oh        1 MOL     -0.897322
    185 H90         4.7840    2.0540   -1.3590 ho        1 MOL      0.435268
    186 H91         4.9670    2.3750   -2.8360 ho        1 MOL      0.435268
    187 O26         7.2140    4.5500   -3.5770 oh        1 MOL     -0.897322
    188 H92         7.7310    4.6260   -4.3790 ho        1 MOL      0.435268
    189 H93         6.3280    4.8190   -3.8370 ho        1 MOL      0.435268
@<TRIPOS>BOND
     1    1    2 1   
     2    1    4 1   
     3    1    5 1   
     4    1    6 1   
     5    2    3 2   
     6    2    7 1   
     7    7    8 1   
     8    7   15 1   
     9    8    9 1   
    10    8   11 1   
    11    8   16 1   
    12    9   10 2   
    13    9   19 1   
    14   11   12 1   
    15   11   17 1   
    16   11   18 1   
    17   12   13 1   
    18   12   14 1   
    19   19   20 1   
    20   19   28 1   
    21   20   21 1   
    22   20   23 1   
    23   20   29 1   
    24   21   22 2   
    25   21   41 1   
    26   23   24 1   
    27   23   30 1   
    28   23   31 1   
    29   24   25 1   
    30   24   32 1   
    31   24   33 1   
    32   25   26 1   
    33   25   34 1   
    34   25   35 1   
    35   26   27 1   
    36   26   36 1   
    37   26   37 1   
    38   27   38 1   
    39   27   39 1   
    40   27   40 1   
    41   41   42 1   
    42   41   49 1   
    43   42   43 1   
    44   42   45 1   
    45   42   50 1   
    46   43   44 2   
    47   43   53 1   
    48   45   46 1   
    49   45   51 1   
    50   45   52 1   
    51   46   47 1   
    52   46   48 1   
    53   53   54 1   
    54   53   57 1   
    55   54   55 1   
    56   54   58 1   
    57   54   59 1   
    58   55   56 2   
    59   55   60 1   
    60   60   61 1   
    61   60   68 1   
    62   61   62 1   
    63   61   64 1   
    64   61   69 1   
    65   62   63 2   
    66   62   72 1   
    67   64   65 1   
    68   64   70 1   
    69   64   71 1   
    70   65   66 1   
    71   65   67 1   
    72   72   73 1   
    73   72   76 1   
    74   73   74 1   
    75   73   77 1   
    76   73   78 1   
    77   74   75 2   
    78   74   79 1   
    79   79   80 1   
    80   79   86 1   
    81   80   81 1   
    82   80   83 1   
    83   80   87 1   
    84   81   82 2   
    85   81   93 1   
    86   83   84 1   
    87   83   85 1   
    88   83   88 1   
    89   84   90 1   
    90   84   91 1   
    91   84   92 1   
    92   85   89 1   
    93   93   94 1   
    94   93  101 1   
    95   94   95 1   
    96   94   97 1   
    97   94  102 1   
    98   95   96 2   
    99   95  112 1   
   100   97   98 1   
   101   97   99 1   
   102   97  103 1   
   103   98  100 1   
   104   98  104 1   
   105   98  105 1   
   106   99  106 1   
   107   99  107 1   
   108   99  108 1   
   109  100  109 1   
   110  100  110 1   
   111  100  111 1   
   112  112  113 1   
   113  112  119 1   
   114  113  114 1   
   115  113  116 1   
   116  113  120 1   
   117  114  115 2   
   118  114  126 1   
   119  116  117 1   
   120  116  118 1   
   121  116  121 1   
   122  117  123 1   
   123  117  124 1   
   124  117  125 1   
   125  118  122 1   
   126  126  127 1   
   127  126  133 1   
   128  127  128 1   
   129  127  130 1   
   130  127  134 1   
   131  128  129 2   
   132  128  140 1   
   133  130  131 1   
   134  130  132 1   
   135  130  135 1   
   136  131  137 1   
   137  131  138 1   
   138  131  139 1   
   139  132  136 1   
   140  140  141 1   
   141  140  149 1   
   142  141  142 1   
   143  141  144 1   
   144  141  150 1   
   145  142  143 2   
   146  142  162 1   
   147  144  145 1   
   148  144  151 1   
   149  144  152 1   
   150  145  146 1   
   151  145  153 1   
   152  145  154 1   
   153  146  147 1   
   154  146  155 1   
   155  146  156 1   
   156  147  148 1   
   157  147  157 1   
   158  147  158 1   
   159  148  159 1   
   160  148  160 1   
   161  148  161 1   
   162  162  163 1   
   163  162  171 1   
   164  163  164 1   
   165  163  166 1   
   166  163  172 1   
   167  164  165 2   
   168  164  177 1   
   169  166  167 1   
   170  166  173 1   
   171  166  174 1   
   172  167  168 1   
   173  167  175 1   
   174  167  176 1   
   175  168  169 1   
   176  168  170 1   
   177  177  178 1   
   178  177  182 1   
   179  178  179 1   
   180  178  180 1   
   181  178  181 1   
   182  184  185 1   
   183  184  186 1   
   184  187  188 1   
   185  187  189 1   
@<TRIPOS>SUBSTRUCTURE
     1 MOL         1 TEMP              0 ****  ****    0 ROOT
