@<TRIPOS>MOLECULE
MOL
  181   177     1     0     0
SMALL
resp


@<TRIPOS>ATOM
      1 C1          4.6120   -2.0380    3.0510 c3        1 MOL     -0.589648
      2 C2          5.8960   -1.3220    2.6470 c         1 MOL      0.763153
      3 O1          5.8590   -0.4380    1.8650 o         1 MOL     -0.562472
      4 H1          4.8400   -2.8010    3.7940 hc        1 MOL      0.159292
      5 H2          3.9120   -1.3170    3.4740 hc        1 MOL      0.159292
      6 H3          4.1650   -2.5070    2.1740 hc        1 MOL      0.159292
      7 N1          7.0470   -1.7210    3.2400 n         1 MOL     -0.581699
      8 C3          8.3640   -1.1470    2.9580 c3        1 MOL      0.110849
      9 C4          8.8500   -1.4170    1.4530 c         1 MOL      0.614139
     10 O2          9.0100   -2.5380    1.0320 o         1 MOL     -0.536880
     11 C5          9.3760   -1.6630    4.0400 c3        1 MOL     -0.258009
     12 C6         10.5990   -0.7080    4.0680 c         1 MOL      0.759050
     13 O3         10.5330    0.4600    3.5990 o         1 MOL     -0.739201
     14 O4         11.5970   -1.1160    4.6590 o         1 MOL     -0.739201
     15 H4          6.9920   -2.3020    4.0640 hn        1 MOL      0.296281
     16 H5          8.2010   -0.0680    3.0520 h1        1 MOL      0.030575
     17 H6          9.7940   -2.6570    3.8530 hc        1 MOL      0.049964
     18 H7          8.8850   -1.6170    5.0190 hc        1 MOL      0.049964
     19 N2          9.1160   -0.2600    0.7990 n         1 MOL     -0.542962
     20 C7          9.2640   -0.1390   -0.6650 c3        1 MOL      0.245416
     21 C8          7.9980   -0.4060   -1.4650 c         1 MOL      0.404518
     22 O5          8.1390   -0.8160   -2.6380 o         1 MOL     -0.555674
     23 C9         10.0040    1.2130   -1.0830 c3        1 MOL     -0.405754
     24 H8          8.9970    0.5550    1.3830 hn        1 MOL      0.289032
     25 H9          9.9570   -0.9450   -0.9250 h1        1 MOL      0.080680
     26 H10         9.4640    2.1190   -0.7920 hc        1 MOL      0.109120
     27 H11        11.0150    1.2490   -0.6620 hc        1 MOL      0.109120
     28 H12        10.2970    1.2310   -2.1380 hc        1 MOL      0.109120
     29 N3          6.7960   -0.3520   -0.8480 n         1 MOL     -0.465133
     30 C10         5.4920   -0.8420   -1.3120 c3        1 MOL      0.364992
     31 C11         5.0290   -0.3010   -2.6860 c         1 MOL      0.335853
     32 O6          4.3270   -1.0380   -3.4060 o         1 MOL     -0.486959
     33 C12         5.3600   -2.3590   -1.0810 c3        1 MOL      0.090503
     34 C13         3.9180   -2.8580   -1.0110 c         1 MOL      0.714444
     35 O7          3.6720   -4.0650   -1.1850 o         1 MOL     -0.772693
     36 O8          2.9520   -2.1030   -0.8120 o         1 MOL     -0.772693
     37 H13         6.8040   -0.2400    0.1500 hn        1 MOL      0.198204
     38 H14         4.7200   -0.4360   -0.6610 h1        1 MOL     -0.020708
     39 H15         5.6800   -2.5490   -0.0610 hc        1 MOL     -0.036477
     40 H16         5.8270   -2.9790   -1.8580 hc        1 MOL     -0.036477
     41 N4          5.4040    0.9700   -3.0030 n         1 MOL     -0.169614
     42 C14         5.1350    1.5980   -4.3180 c3        1 MOL     -0.272873
     43 C15         3.9280    2.4930   -4.4270 c         1 MOL      0.592827
     44 O9          3.5690    2.9990   -5.5020 o         1 MOL     -0.575672
     45 H17         5.9270    1.5040   -2.3120 hn        1 MOL      0.217858
     46 H18         5.0340    0.7570   -4.9950 h1        1 MOL      0.129547
     47 H19         6.0040    2.2060   -4.5580 h1        1 MOL      0.129547
     48 N5          3.3080    2.8540   -3.2980 n         1 MOL     -0.381964
     49 C16         2.0240    3.5680   -3.2780 c3        1 MOL      0.084131
     50 C17         1.8830    4.6870   -2.1840 c         1 MOL      0.476101
     51 O10         2.4790    4.6150   -1.1580 o         1 MOL     -0.470937
     52 C18         1.0310    2.3730   -3.0280 c3        1 MOL     -0.185656
     53 C19        -0.4510    2.8760   -3.2350 c         1 MOL      0.501513
     54 N6         -1.0960    3.2100   -2.1380 n         1 MOL     -0.636747
     55 O11        -0.9580    3.1650   -4.3760 o         1 MOL     -0.570829
     56 H20         3.7570    2.6220   -2.4200 hn        1 MOL      0.210927
     57 H21         1.8760    4.0690   -4.2310 h1        1 MOL      0.067651
     58 H22         1.0870    1.9940   -2.0120 hc        1 MOL      0.113450
     59 H23         1.2650    1.5830   -3.7380 hc        1 MOL      0.113450
     60 H24        -0.6790    3.1250   -1.2240 hn        1 MOL      0.321446
     61 H25        -2.0760    3.4310   -2.2080 hn        1 MOL      0.321446
     62 N7          1.0180    5.7190   -2.4950 n         1 MOL     -0.456834
     63 C20         0.6330    6.8020   -1.6230 c3        1 MOL      0.108658
     64 C21        -0.9090    6.8610   -1.1450 c         1 MOL      0.433742
     65 O12        -1.8130    6.4850   -1.8790 o         1 MOL     -0.482935
     66 H26         0.4980    5.6650   -3.3580 hn        1 MOL      0.302972
     67 H27         0.8030    7.7050   -2.2010 h1        1 MOL      0.033965
     68 H28         1.2920    6.9640   -0.7750 h1        1 MOL      0.033965
     69 N8         -1.2170    7.3010    0.0580 n         1 MOL     -0.342582
     70 C22        -2.5320    7.2980    0.7510 c3        1 MOL     -0.276354
     71 C23        -2.6870    6.0320    1.5250 c         1 MOL      0.635671
     72 O13        -3.7770    5.9150    2.0570 o         1 MOL     -0.572350
     73 C24        -2.7570    8.5890    1.4850 c3        1 MOL      0.573674
     74 C25        -2.1630    8.5590    2.8610 c3        1 MOL     -0.212239
     75 O14        -2.1710    9.7180    0.8970 oh        1 MOL     -0.651211
     76 H29        -0.5200    7.8200    0.5680 hn        1 MOL      0.204387
     77 H30        -3.2690    7.2340   -0.0530 h1        1 MOL      0.144391
     78 H31        -3.8190    8.7310    1.7060 h1        1 MOL     -0.008437
     79 H32        -1.2310    9.5430    0.8590 ho        1 MOL      0.379729
     80 H33        -2.0650    9.5560    3.2850 hc        1 MOL      0.040815
     81 H34        -2.8560    8.0080    3.4860 hc        1 MOL      0.040815
     82 H35        -1.1670    8.1180    2.9010 hc        1 MOL      0.040815
     83 N9         -1.7430    5.0860    1.6110 n         1 MOL     -0.414610
     84 C26        -1.9280    3.7410    2.2810 c3        1 MOL     -0.004079
     85 C27        -1.4350    2.5820    1.3600 c         1 MOL      0.550218
     86 O15        -0.4680    2.6940    0.5840 o         1 MOL     -0.483590
     87 C28        -1.3660    3.6990    3.7120 c3        1 MOL      0.102070
     88 C29        -1.8860    4.7910    4.6700 c3        1 MOL      0.007841
     89 C30        -1.5950    2.3060    4.4220 c3        1 MOL     -0.164682
     90 C31        -3.3500    4.7470    5.1190 c3        1 MOL     -0.113164
     91 H36        -0.8720    5.2560    1.1250 hn        1 MOL      0.231400
     92 H37        -3.0120    3.6480    2.3780 h1        1 MOL      0.073172
     93 H38        -0.2940    3.8680    3.5980 hc        1 MOL      0.014597
     94 H39        -1.8240    5.7810    4.2210 hc        1 MOL     -0.003160
     95 H40        -1.1900    4.7920    5.5100 hc        1 MOL     -0.003160
     96 H41        -1.2780    1.5130    3.7380 hc        1 MOL      0.043292
     97 H42        -1.0100    2.2990    5.3500 hc        1 MOL      0.043292
     98 H43        -2.6060    2.2000    4.7930 hc        1 MOL      0.043292
     99 H44        -3.5850    3.9900    5.8680 hc        1 MOL      0.032080
    100 H45        -3.5940    5.6940    5.6000 hc        1 MOL      0.032080
    101 H46        -4.0290    4.6390    4.2770 hc        1 MOL      0.032080
    102 N10        -2.1970    1.4500    1.3070 n         1 MOL     -0.486673
    103 C32        -1.8930    0.3040    0.4110 c3        1 MOL      0.060556
    104 C33        -3.1890   -0.2870   -0.1850 c         1 MOL      0.562333
    105 O16        -3.2410   -1.4810   -0.4240 o         1 MOL     -0.497890
    106 C34        -1.0340   -0.6920    1.2180 c3        1 MOL     -0.124140
    107 C35        -0.4090   -1.8100    0.3070 c         1 MOL      0.697951
    108 O17        -0.0200   -2.9230    0.7440 o         1 MOL     -0.754896
    109 O18        -0.1020   -1.5980   -0.8960 o         1 MOL     -0.754896
    110 H47        -3.0800    1.4900    1.8030 hn        1 MOL      0.270030
    111 H48        -1.2960    0.6540   -0.4230 h1        1 MOL      0.048820
    112 H49        -1.6080   -1.0650    2.0720 hc        1 MOL      0.075840
    113 H50        -0.2850   -0.1320    1.7890 hc        1 MOL      0.075840
    114 N11        -4.2680    0.4610   -0.3380 n         1 MOL     -0.482362
    115 C36        -5.5410   -0.0850   -0.6950 c3        1 MOL      0.322997
    116 C37        -6.1450   -1.1490    0.2290 c         1 MOL      0.087742
    117 O19        -6.0890   -0.9170    1.4510 o         1 MOL     -0.442052
    118 C38        -6.5350    1.0910   -0.9460 c3        1 MOL     -0.259500
    119 C39        -7.9120    0.5890   -1.3020 ca        1 MOL      0.104233
    120 C40        -8.2320    0.4330   -2.6770 ca        1 MOL     -0.153626
    121 C41        -8.8870    0.3420   -0.3400 ca        1 MOL     -0.153626
    122 C42        -9.5340   -0.0640   -3.0470 ca        1 MOL     -0.126733
    123 C43       -10.1500   -0.0490   -0.7770 ca        1 MOL     -0.126733
    124 C44       -10.4390   -0.3430   -2.1070 ca        1 MOL     -0.081469
    125 H51        -4.2940    1.4400   -0.0770 hn        1 MOL      0.242498
    126 H52        -5.3660   -0.5750   -1.6550 h1        1 MOL      0.004354
    127 H53        -6.1390    1.7720   -1.7000 hc        1 MOL      0.100909
    128 H54        -6.5130    1.6840   -0.0230 hc        1 MOL      0.100909
    129 H55        -7.4870    0.7010   -3.4060 ha        1 MOL      0.126901
    130 H56        -8.6670    0.5050    0.6980 ha        1 MOL      0.126901
    131 H57        -9.6920   -0.2630   -4.0980 ha        1 MOL      0.108275
    132 H58       -10.8820   -0.3030   -0.0330 ha        1 MOL      0.108275
    133 H59       -11.4160   -0.7280   -2.3400 ha        1 MOL      0.097399
    134 N12        -6.6870   -2.3370   -0.2320 n         1 MOL      0.137417
    135 C45        -7.3120   -3.2960    0.6040 c3        1 MOL     -0.005238
    136 C46        -6.3450   -4.1280    1.5110 c         1 MOL      0.492650
    137 O20        -6.8520   -4.6950    2.4620 o         1 MOL     -0.557037
    138 C47        -8.1400   -4.2340   -0.3190 c3        1 MOL     -0.230247
    139 C48        -7.2030   -4.2290   -1.5460 c3        1 MOL      0.081749
    140 C49        -6.7020   -2.7870   -1.6250 c3        1 MOL     -0.134752
    141 H60        -7.9480   -2.8250    1.3550 h1        1 MOL      0.054249
    142 H61        -8.2450   -5.2010    0.1800 hc        1 MOL      0.085442
    143 H62        -9.0960   -3.7830   -0.5520 hc        1 MOL      0.085442
    144 H63        -6.3110   -4.8350   -1.4680 hc        1 MOL      0.004088
    145 H64        -7.6870   -4.5750   -2.4620 hc        1 MOL      0.004088
    146 H65        -5.6990   -2.8570   -2.0450 h1        1 MOL      0.045930
    147 H66        -7.2940   -2.1130   -2.2450 h1        1 MOL      0.045930
    148 N13        -5.0000   -4.0670    1.2870 n         1 MOL     -0.244621
    149 C50        -4.0210   -4.8120    2.1140 c3        1 MOL     -0.250407
    150 C51        -3.7070   -4.0790    3.4350 c         1 MOL      0.454874
    151 O21        -2.7590   -4.4540    4.1810 o         1 MOL     -0.529396
    152 C52        -2.7810   -5.1330    1.2840 c3        1 MOL      0.138371
    153 C53        -2.9410   -6.1250    0.1620 c3        1 MOL     -0.102824
    154 C54        -1.6080   -6.3730   -0.6110 c         1 MOL      0.615193
    155 O22        -1.1860   -5.4180   -1.3080 o         1 MOL     -0.679606
    156 O23        -1.0520   -7.4600   -0.5050 o         1 MOL     -0.679606
    157 H67        -4.6690   -3.6830    0.4140 hn        1 MOL      0.284995
    158 H68        -4.4570   -5.7800    2.3550 h1        1 MOL      0.139586
    159 H69        -1.9370   -5.5340    1.8580 hc        1 MOL      0.030253
    160 H70        -2.5130   -4.1740    0.8380 hc        1 MOL      0.030253
    161 H71        -3.7610   -5.7600   -0.4560 hc        1 MOL     -0.017698
    162 H72        -3.3520   -7.0930    0.4510 hc        1 MOL     -0.017698
    163 N14        -4.4170   -2.9680    3.7700 n         1 MOL     -0.181418
    164 C55        -4.1850   -2.1350    4.9990 c3        1 MOL     -0.201596
    165 H73        -4.2630   -1.0790    4.7410 h1        1 MOL      0.090053
    166 H74        -4.9350   -2.3800    5.7520 h1        1 MOL      0.090053
    167 H75        -3.1900   -2.3390    5.3960 h1        1 MOL      0.090053
    168 H76        -5.0790   -2.5940    3.1020 hn        1 MOL      0.168249
    169 Ca1         0.9890   -3.8570   -1.4630 Ca        1 MOL      1.809044
    170 O24         1.0260   -6.0460   -3.3030 oh        1 MOL     -0.836561
    171 H77         0.6940   -6.7760   -2.7850 ho        1 MOL      0.402102
    172 H78         0.9070   -6.3220   -4.2110 ho        1 MOL      0.402102
    173 O25        -0.7440   -3.5960   -3.6170 oh        1 MOL     -0.836561
    174 H79        -1.6580   -3.7950   -3.4260 ho        1 MOL      0.402102
    175 H80        -0.6660   -3.6800   -4.5630 ho        1 MOL      0.402102
    176 O26         1.4870   -5.9090    0.1740 oh        1 MOL     -0.836561
    177 H81         1.2410   -6.8370    0.1350 ho        1 MOL      0.402102
    178 H82         1.9520   -5.8150    1.0090 ho        1 MOL      0.402102
    179 O27         1.9810   -2.4610   -3.4550 oh        1 MOL     -0.836561
    180 H83         1.4820   -2.0830   -4.1810 ho        1 MOL      0.402102
    181 H84         2.6930   -1.8320   -3.2980 ho        1 MOL      0.402102
@<TRIPOS>BOND
     1    1    2 1   
     2    1    4 1   
     3    1    5 1   
     4    1    6 1   
     5    2    3 2   
     6    2    7 1   
     7    7    8 1   
     8    7   15 1   
     9    8    9 1   
    10    8   11 1   
    11    8   16 1   
    12    9   10 2   
    13    9   19 1   
    14   11   12 1   
    15   11   17 1   
    16   11   18 1   
    17   12   13 1   
    18   12   14 1   
    19   19   20 1   
    20   19   24 1   
    21   20   21 1   
    22   20   23 1   
    23   20   25 1   
    24   21   22 2   
    25   21   29 1   
    26   23   26 1   
    27   23   27 1   
    28   23   28 1   
    29   29   30 1   
    30   29   37 1   
    31   30   31 1   
    32   30   33 1   
    33   30   38 1   
    34   31   32 2   
    35   31   41 1   
    36   33   34 1   
    37   33   39 1   
    38   33   40 1   
    39   34   35 1   
    40   34   36 1   
    41   41   42 1   
    42   41   45 1   
    43   42   43 1   
    44   42   46 1   
    45   42   47 1   
    46   43   44 2   
    47   43   48 1   
    48   48   49 1   
    49   48   56 1   
    50   49   50 1   
    51   49   52 1   
    52   49   57 1   
    53   50   51 2   
    54   50   62 1   
    55   52   53 1   
    56   52   58 1   
    57   52   59 1   
    58   53   54 1   
    59   53   55 2   
    60   54   60 1   
    61   54   61 1   
    62   62   63 1   
    63   62   66 1   
    64   63   64 1   
    65   63   67 1   
    66   63   68 1   
    67   64   65 2   
    68   64   69 1   
    69   69   70 1   
    70   69   76 1   
    71   70   71 1   
    72   70   73 1   
    73   70   77 1   
    74   71   72 2   
    75   71   83 1   
    76   73   74 1   
    77   73   75 1   
    78   73   78 1   
    79   74   80 1   
    80   74   81 1   
    81   74   82 1   
    82   75   79 1   
    83   83   84 1   
    84   83   91 1   
    85   84   85 1   
    86   84   87 1   
    87   84   92 1   
    88   85   86 2   
    89   85  102 1   
    90   87   88 1   
    91   87   89 1   
    92   87   93 1   
    93   88   90 1   
    94   88   94 1   
    95   88   95 1   
    96   89   96 1   
    97   89   97 1   
    98   89   98 1   
    99   90   99 1   
   100   90  100 1   
   101   90  101 1   
   102  102  103 1   
   103  102  110 1   
   104  103  104 1   
   105  103  106 1   
   106  103  111 1   
   107  104  105 2   
   108  104  114 1   
   109  106  107 1   
   110  106  112 1   
   111  106  113 1   
   112  107  108 1   
   113  107  109 1   
   114  114  115 1   
   115  114  125 1   
   116  115  116 1   
   117  115  118 1   
   118  115  126 1   
   119  116  117 2   
   120  116  134 1   
   121  118  119 1   
   122  118  127 1   
   123  118  128 1   
   124  119  120 ar  
   125  119  121 ar  
   126  120  122 ar  
   127  120  129 1   
   128  121  123 ar  
   129  121  130 1   
   130  122  124 ar  
   131  122  131 1   
   132  123  124 ar  
   133  123  132 1   
   134  124  133 1   
   135  134  135 1   
   136  134  140 1   
   137  135  136 1   
   138  135  138 1   
   139  135  141 1   
   140  136  137 2   
   141  136  148 1   
   142  138  139 1   
   143  138  142 1   
   144  138  143 1   
   145  139  140 1   
   146  139  144 1   
   147  139  145 1   
   148  140  146 1   
   149  140  147 1   
   150  148  149 1   
   151  148  157 1   
   152  149  150 1   
   153  149  152 1   
   154  149  158 1   
   155  150  151 2   
   156  150  163 1   
   157  152  153 1   
   158  152  159 1   
   159  152  160 1   
   160  153  154 1   
   161  153  161 1   
   162  153  162 1   
   163  154  155 1   
   164  154  156 1   
   165  163  164 1   
   166  163  168 1   
   167  164  165 1   
   168  164  166 1   
   169  164  167 1   
   170  170  171 1   
   171  170  172 1   
   172  173  174 1   
   173  173  175 1   
   174  176  177 1   
   175  176  178 1   
   176  179  180 1   
   177  179  181 1   
@<TRIPOS>SUBSTRUCTURE
     1 MOL         1 TEMP              0 ****  ****    0 ROOT
