@<TRIPOS>MOLECULE
MOL
  179   176     1     0     0
SMALL
resp


@<TRIPOS>ATOM
      1 C1          1.1380   -4.4060    5.9210 c3        1 MOL     -0.503847
      2 C2          1.1980   -3.9380    4.5010 c         1 MOL      0.751374
      3 O1          0.1900   -3.8610    3.8020 o         1 MOL     -0.588699
      4 H1          0.4280   -5.2290    6.0030 hc        1 MOL      0.148223
      5 H2          2.1240   -4.7460    6.2350 hc        1 MOL      0.148223
      6 H3          0.8160   -3.5850    6.5610 hc        1 MOL      0.148223
      7 N1          2.3550   -3.4570    3.9880 n         1 MOL     -0.510320
      8 C3          2.6170   -3.0050    2.5650 c3        1 MOL     -0.074105
      9 C4          2.9260   -4.2300    1.7020 c         1 MOL      0.683610
     10 O2          3.5820   -5.1830    2.1680 o         1 MOL     -0.574362
     11 C5          3.7020   -1.9800    2.5710 c3        1 MOL     -0.095245
     12 C6          3.8280   -1.2390    1.2460 c         1 MOL      0.471719
     13 O3          4.4850   -0.1680    1.2650 o         1 MOL     -0.636396
     14 O4          3.3030   -1.6200    0.2130 o         1 MOL     -0.636396
     15 H4          3.1670   -3.5160    4.5950 hn        1 MOL      0.294734
     16 H5          1.7130   -2.5050    2.2130 h1        1 MOL     -0.084497
     17 H6          4.6540   -2.4300    2.8350 hc        1 MOL      0.078838
     18 H7          3.5220   -1.1890    3.3080 hc        1 MOL      0.078838
     19 N2          2.5110   -4.2850    0.4400 n         1 MOL     -0.336480
     20 C7          2.7990   -5.3420   -0.5530 c3        1 MOL     -0.149175
     21 C8          3.9870   -5.1000   -1.4460 c         1 MOL      0.601963
     22 O5          4.4170   -6.0380   -2.1690 o         1 MOL     -0.568062
     23 C9          1.4360   -5.6870   -1.2400 c3        1 MOL      0.026611
     24 C10         0.9890   -4.7450   -2.3170 c3        1 MOL     -0.071996
     25 C11        -0.5100   -4.8440   -2.5450 c3        1 MOL      0.026554
     26 C12        -0.9260   -3.9330   -3.7620 c3        1 MOL     -0.069726
     27 N3         -2.4260   -3.8850   -4.1570 n4        1 MOL     -0.263582
     28 H8          2.1820   -3.3910    0.0950 hn        1 MOL      0.218703
     29 H9          3.1160   -6.2430   -0.0200 h1        1 MOL      0.136603
     30 H10         0.6490   -5.7870   -0.4950 hc        1 MOL      0.036489
     31 H11         1.5210   -6.6930   -1.6520 hc        1 MOL      0.036489
     32 H12         1.5240   -4.9990   -3.2280 hc        1 MOL      0.051589
     33 H13         1.1810   -3.6830   -2.1360 hc        1 MOL      0.051589
     34 H14        -0.9670   -4.3940   -1.6750 hc        1 MOL      0.028227
     35 H15        -0.7890   -5.8970   -2.6600 hc        1 MOL      0.028227
     36 H16        -0.3880   -4.1650   -4.6780 hx        1 MOL      0.088720
     37 H17        -0.5860   -2.9520   -3.4190 hx        1 MOL      0.088720
     38 H18        -2.6390   -3.3320   -4.9790 hn        1 MOL      0.275528
     39 H19        -2.6360   -4.8510   -4.3600 hn        1 MOL      0.275528
     40 H20        -2.9980   -3.4390   -3.4430 hn        1 MOL      0.275528
     41 N4          4.4750   -3.8740   -1.5110 n         1 MOL     -0.458563
     42 C13         5.5280   -3.4900   -2.4980 c3        1 MOL      0.266791
     43 C14         6.8010   -2.9130   -1.7960 c         1 MOL      0.277651
     44 O6          7.9640   -3.2590   -2.2000 o         1 MOL     -0.515820
     45 C15         5.0780   -2.4110   -3.4210 c3        1 MOL     -0.237923
     46 C16         4.3740   -1.2300   -2.7730 c         1 MOL      0.763731
     47 O7          3.1590   -1.1290   -2.7510 o         1 MOL     -0.794296
     48 O8          5.0120   -0.3350   -2.1870 o         1 MOL     -0.794296
     49 H21         4.0320   -3.1920   -0.9230 hn        1 MOL      0.201530
     50 H22         5.8580   -4.3600   -3.0640 h1        1 MOL      0.071363
     51 H23         4.4340   -3.0020   -4.0670 hc        1 MOL      0.068127
     52 H24         5.9200   -2.2050   -4.0920 hc        1 MOL      0.068127
     53 N5          6.6650   -2.0450   -0.7500 n         1 MOL     -0.157702
     54 C17         7.7170   -1.6320    0.1510 c3        1 MOL     -0.193725
     55 C18         7.7720   -0.1510    0.2360 c         1 MOL      0.558620
     56 O9          8.5500    0.2650    1.1280 o         1 MOL     -0.548343
     57 H25         5.7040   -1.7930   -0.5670 hn        1 MOL      0.241777
     58 H26         8.7070   -1.9990   -0.1110 h1        1 MOL      0.135248
     59 H27         7.4560   -1.9120    1.1730 h1        1 MOL      0.135248
     60 N6          6.9710    0.6610   -0.4950 n         1 MOL     -0.342461
     61 C19         7.2110    2.0730   -0.4900 c3        1 MOL      0.190849
     62 C20         5.9130    2.9160   -0.4680 c         1 MOL      0.707386
     63 O10         4.7650    2.4200   -0.6530 o         1 MOL     -0.670930
     64 C21         8.1070    2.4460   -1.7190 c3        1 MOL     -0.545767
     65 C22         9.4310    1.7380   -1.7440 c         1 MOL      0.775785
     66 N7          9.8320    1.1210   -2.8790 n         1 MOL     -0.820234
     67 O11        10.3640    1.8130   -0.9200 o         1 MOL     -0.534038
     68 H28         6.3560    0.2790   -1.2010 hn        1 MOL      0.269006
     69 H29         7.7210    2.3020    0.4450 h1        1 MOL      0.034509
     70 H30         8.3020    3.4980   -1.8960 hc        1 MOL      0.123235
     71 H31         7.5080    1.9970   -2.5140 hc        1 MOL      0.123235
     72 H32         9.2300    1.1460   -3.6910 hn        1 MOL      0.367411
     73 H33        10.8020    0.8480   -2.9660 hn        1 MOL      0.367411
     74 N8          5.9450    4.2790   -0.2510 n         1 MOL     -0.562287
     75 C23         4.7790    5.1690   -0.2400 c3        1 MOL      0.070468
     76 C24         3.6330    4.7320    0.7250 c         1 MOL      0.459623
     77 O12         3.9500    4.4700    1.8830 o         1 MOL     -0.477833
     78 H34         6.8680    4.7040   -0.2380 hn        1 MOL      0.340469
     79 H35         4.4220    5.2530   -1.2700 h1        1 MOL      0.056946
     80 H36         5.0860    6.1930   -0.0480 h1        1 MOL      0.056946
     81 N9          2.3930    4.6900    0.2990 n         1 MOL     -0.360521
     82 C25         1.2750    4.3960    1.1460 c3        1 MOL      0.158510
     83 C26         1.2620    2.9050    1.5640 c         1 MOL      0.586919
     84 O13         2.0850    2.1080    1.0030 o         1 MOL     -0.512059
     85 C27        -0.1060    4.8330    0.5590 c3        1 MOL     -0.013004
     86 C28        -0.2310    6.1550   -0.1180 ca        1 MOL     -0.055209
     87 C29        -0.3520    6.3580   -1.4730 ca        1 MOL     -0.084523
     88 C30        -0.2680    7.2840    0.7150 ca        1 MOL     -0.084523
     89 C31        -0.3590    7.6310   -1.9930 ca        1 MOL     -0.265703
     90 C32        -0.3470    8.5680    0.1470 ca        1 MOL     -0.265703
     91 C33        -0.3980    8.8090   -1.2330 ca        1 MOL      0.346768
     92 O14        -0.3190   10.0310   -1.7590 oh        1 MOL     -0.430169
     93 H37         2.2770    4.7900   -0.6930 hn        1 MOL      0.127937
     94 H38         1.4600    4.9960    2.0320 h1        1 MOL      0.059563
     95 H39        -0.8930    4.7330    1.3040 hc        1 MOL      0.040709
     96 H40        -0.4870    4.1370   -0.1970 hc        1 MOL      0.040709
     97 H41        -0.4050    5.4790   -2.0990 ha        1 MOL      0.101931
     98 H42        -0.2040    7.1870    1.7930 ha        1 MOL      0.101931
     99 H43        -0.4680    7.7940   -3.0520 ha        1 MOL      0.141035
    100 H44        -0.1250    9.4030    0.7800 ha        1 MOL      0.141035
    101 H45        -0.3890   10.0260   -2.7100 ho        1 MOL      0.353117
    102 N10         0.2670    2.5670    2.3810 n         1 MOL     -0.744497
    103 C34        -0.1030    1.2590    2.9090 c3        1 MOL     -0.006502
    104 C35        -0.2870    0.1430    1.7920 c         1 MOL      0.779626
    105 O15         0.6340   -0.2430    1.0760 o         1 MOL     -0.462854
    106 C36         0.9500    0.8730    4.0050 c3        1 MOL      0.326945
    107 C37         0.6740   -0.4280    4.6880 c3        1 MOL     -0.289328
    108 C38         1.1290    2.0570    4.9930 c3        1 MOL     -0.302153
    109 C39        -0.5740   -0.5930    5.5260 c3        1 MOL     -0.267549
    110 H46        -0.2190    3.3710    2.7490 hn        1 MOL      0.344386
    111 H47        -1.0930    1.3350    3.3620 h1        1 MOL      0.103990
    112 H48         1.9390    0.7660    3.5590 hc        1 MOL      0.011065
    113 H49         1.5310   -0.7430    5.2790 hc        1 MOL      0.115481
    114 H50         0.6170   -1.1550    3.8830 hc        1 MOL      0.115481
    115 H51         1.7630    1.6790    5.8020 hc        1 MOL      0.081730
    116 H52         1.7340    2.8650    4.5930 hc        1 MOL      0.081730
    117 H53         0.1510    2.2420    5.4410 hc        1 MOL      0.081730
    118 H54        -0.5280    0.0220    6.4200 hc        1 MOL      0.076483
    119 H55        -1.3810   -0.2200    4.8870 hc        1 MOL      0.076483
    120 H56        -0.7500   -1.5890    5.9460 hc        1 MOL      0.076483
    121 N11        -1.5070   -0.3230    1.5960 n         1 MOL     -0.723788
    122 C40        -1.6720   -1.3920    0.6310 c3        1 MOL      0.239941
    123 C41        -3.0710   -1.4170   -0.0030 c         1 MOL      0.525862
    124 O16        -3.3540   -2.2380   -0.8920 o         1 MOL     -0.562931
    125 C42        -1.3990   -2.7860    1.1070 c3        1 MOL      0.334505
    126 O17        -2.1320   -2.9790    2.3530 oh        1 MOL     -0.645934
    127 H57        -2.1700   -0.1430    2.3380 hn        1 MOL      0.330186
    128 H58        -0.9260   -1.1930   -0.1440 h1        1 MOL     -0.010238
    129 H59        -0.3670   -2.8650    1.4540 h1        1 MOL     -0.027501
    130 H60        -1.6280   -3.5160    0.3260 h1        1 MOL     -0.027501
    131 H61        -1.5380   -3.2170    3.0710 ho        1 MOL      0.393618
    132 N12        -4.0520   -0.5380    0.4080 n         1 MOL     -0.610353
    133 C43        -5.4560   -0.8080    0.0890 c3        1 MOL      0.355656
    134 C44        -5.7760   -0.1900   -1.2950 c         1 MOL      0.549906
    135 O18        -4.9680    0.5710   -1.7520 o         1 MOL     -0.551728
    136 C45        -6.2220   -0.3010    1.3190 c3        1 MOL     -0.427469
    137 H62        -3.8590   -0.0550    1.2790 hn        1 MOL      0.295901
    138 H63        -5.6800   -1.8640    0.1350 h1        1 MOL      0.051492
    139 H64        -7.2850   -0.5100    1.1650 hc        1 MOL      0.117693
    140 H65        -5.8520   -0.8730    2.1840 hc        1 MOL      0.117693
    141 H66        -5.9840    0.7540    1.4480 hc        1 MOL      0.117693
    142 N13        -6.9010   -0.4570   -1.9980 n         1 MOL     -0.636461
    143 C46        -8.1320   -1.1470   -1.5130 c3        1 MOL      0.197068
    144 C47        -9.3020   -0.3250   -2.0310 c         1 MOL      0.286247
    145 O19        -9.3470    0.0310   -3.2220 o         1 MOL     -0.489442
    146 C48        -8.1120   -2.5670   -2.1330 c3        1 MOL     -0.052838
    147 H67        -6.8940   -0.0860   -2.9390 hn        1 MOL      0.348058
    148 H68        -8.0700   -1.2330   -0.4280 h1        1 MOL      0.014067
    149 H69        -8.9260   -3.2370   -1.8410 hc        1 MOL      0.026712
    150 H70        -8.1590   -2.4970   -3.2160 hc        1 MOL      0.026712
    151 H71        -7.1790   -3.0480   -1.8390 hc        1 MOL      0.026712
    152 N14       -10.3550   -0.2020   -1.2650 n         1 MOL     -0.085086
    153 C49       -10.5350   -0.6630    0.2040 c3        1 MOL     -0.338954
    154 C50       -10.0800    0.3650    1.2270 c         1 MOL      0.629343
    155 O20       -10.0290    0.0180    2.4050 o         1 MOL     -0.530938
    156 C51       -12.0140   -1.0820    0.5540 c3        1 MOL     -0.145181
    157 C52       -13.1060   -0.0470    0.1850 c3        1 MOL     -0.131468
    158 C53       -13.5670   -0.1330   -1.3130 c         1 MOL      0.719688
    159 O21       -13.7700   -1.2250   -1.9290 o         1 MOL     -0.672706
    160 O22       -13.8930    0.9530   -1.8670 o         1 MOL     -0.672706
    161 H72       -11.1280    0.3950   -1.5370 hn        1 MOL      0.190539
    162 H73       -10.0490   -1.6270    0.3470 h1        1 MOL      0.156607
    163 H74       -12.1250   -1.2770    1.6160 hc        1 MOL      0.086689
    164 H75       -12.1730   -2.0020   -0.0140 hc        1 MOL      0.086689
    165 H76       -12.7140    0.9310    0.4420 hc        1 MOL      0.032411
    166 H77       -14.0920   -0.2270    0.6250 hc        1 MOL      0.032411
    167 N15        -9.9100    1.6850    0.7850 n         1 MOL     -0.338069
    168 C54        -9.2620    2.7880    1.5380 c3        1 MOL     -0.230720
    169 H78        -8.5220    3.2760    0.9030 h1        1 MOL      0.109029
    170 H79       -10.0160    3.5150    1.8400 h1        1 MOL      0.109029
    171 H80        -8.7700    2.3850    2.4230 h1        1 MOL      0.109029
    172 H81       -10.1840    1.8520   -0.1690 hn        1 MOL      0.272921
    173 Ca1         2.7710    0.6660   -0.9280 Ca        1 MOL      1.772342
    174 O23         0.4280   -0.0870   -1.9250 oh        1 MOL     -0.869571
    175 H82        -0.3810    0.3830   -1.7320 ho        1 MOL      0.423998
    176 H83         0.2420   -0.5660   -2.7360 ho        1 MOL      0.423998
    177 O24         1.1570    2.8370   -1.5890 oh        1 MOL     -0.869571
    178 H84         1.8570    3.4150   -1.9020 ho        1 MOL      0.423998
    179 H85         0.3800    3.0990   -2.0810 ho        1 MOL      0.423998
@<TRIPOS>BOND
     1    1    2 1   
     2    1    4 1   
     3    1    5 1   
     4    1    6 1   
     5    2    3 2   
     6    2    7 1   
     7    7    8 1   
     8    7   15 1   
     9    8    9 1   
    10    8   11 1   
    11    8   16 1   
    12    9   10 2   
    13    9   19 1   
    14   11   12 1   
    15   11   17 1   
    16   11   18 1   
    17   12   13 1   
    18   12   14 1   
    19   19   20 1   
    20   19   28 1   
    21   20   21 1   
    22   20   23 1   
    23   20   29 1   
    24   21   22 2   
    25   21   41 1   
    26   23   24 1   
    27   23   30 1   
    28   23   31 1   
    29   24   25 1   
    30   24   32 1   
    31   24   33 1   
    32   25   26 1   
    33   25   34 1   
    34   25   35 1   
    35   26   27 1   
    36   26   36 1   
    37   26   37 1   
    38   27   38 1   
    39   27   39 1   
    40   27   40 1   
    41   41   42 1   
    42   41   49 1   
    43   42   43 1   
    44   42   45 1   
    45   42   50 1   
    46   43   44 2   
    47   43   53 1   
    48   45   46 1   
    49   45   51 1   
    50   45   52 1   
    51   46   47 1   
    52   46   48 1   
    53   53   54 1   
    54   53   57 1   
    55   54   55 1   
    56   54   58 1   
    57   54   59 1   
    58   55   56 2   
    59   55   60 1   
    60   60   61 1   
    61   60   68 1   
    62   61   62 1   
    63   61   64 1   
    64   61   69 1   
    65   62   63 2   
    66   62   74 1   
    67   64   65 1   
    68   64   70 1   
    69   64   71 1   
    70   65   66 1   
    71   65   67 2   
    72   66   72 1   
    73   66   73 1   
    74   74   75 1   
    75   74   78 1   
    76   75   76 1   
    77   75   79 1   
    78   75   80 1   
    79   76   77 2   
    80   76   81 1   
    81   81   82 1   
    82   81   93 1   
    83   82   83 1   
    84   82   85 1   
    85   82   94 1   
    86   83   84 2   
    87   83  102 1   
    88   85   86 1   
    89   85   95 1   
    90   85   96 1   
    91   86   87 ar  
    92   86   88 ar  
    93   87   89 ar  
    94   87   97 1   
    95   88   90 ar  
    96   88   98 1   
    97   89   91 ar  
    98   89   99 1   
    99   90   91 ar  
   100   90  100 1   
   101   91   92 1   
   102   92  101 1   
   103  102  103 1   
   104  102  110 1   
   105  103  104 1   
   106  103  106 1   
   107  103  111 1   
   108  104  105 2   
   109  104  121 1   
   110  106  107 1   
   111  106  108 1   
   112  106  112 1   
   113  107  109 1   
   114  107  113 1   
   115  107  114 1   
   116  108  115 1   
   117  108  116 1   
   118  108  117 1   
   119  109  118 1   
   120  109  119 1   
   121  109  120 1   
   122  121  122 1   
   123  121  127 1   
   124  122  123 1   
   125  122  125 1   
   126  122  128 1   
   127  123  124 2   
   128  123  132 1   
   129  125  126 1   
   130  125  129 1   
   131  125  130 1   
   132  126  131 1   
   133  132  133 1   
   134  132  137 1   
   135  133  134 1   
   136  133  136 1   
   137  133  138 1   
   138  134  135 2   
   139  134  142 1   
   140  136  139 1   
   141  136  140 1   
   142  136  141 1   
   143  142  143 1   
   144  142  147 1   
   145  143  144 1   
   146  143  146 1   
   147  143  148 1   
   148  144  145 2   
   149  144  152 1   
   150  146  149 1   
   151  146  150 1   
   152  146  151 1   
   153  152  153 1   
   154  152  161 1   
   155  153  154 1   
   156  153  156 1   
   157  153  162 1   
   158  154  155 2   
   159  154  167 1   
   160  156  157 1   
   161  156  163 1   
   162  156  164 1   
   163  157  158 1   
   164  157  165 1   
   165  157  166 1   
   166  158  159 1   
   167  158  160 1   
   168  167  168 1   
   169  167  172 1   
   170  168  169 1   
   171  168  170 1   
   172  168  171 1   
   173  174  175 1   
   174  174  176 1   
   175  177  178 1   
   176  177  179 1   
@<TRIPOS>SUBSTRUCTURE
     1 MOL         1 TEMP              0 ****  ****    0 ROOT
