@<TRIPOS>MOLECULE
MOL
  181   177     1     0     0
SMALL
resp


@<TRIPOS>ATOM
      1 C1          9.7480    7.4550   -2.0590 c3        1 MOL     -0.327636
      2 C2          9.1320    6.5980   -0.9350 c         1 MOL      0.673460
      3 O1          8.3320    7.1820   -0.1700 o         1 MOL     -0.605041
      4 H1          8.9780    8.0920   -2.4930 hc        1 MOL      0.090256
      5 H2         10.5440    8.0760   -1.6480 hc        1 MOL      0.090256
      6 H3         10.1570    6.8030   -2.8310 hc        1 MOL      0.090256
      7 N1          9.2490    5.2790   -0.7620 n         1 MOL     -0.577295
      8 C3         10.0420    4.2730   -1.5090 c3        1 MOL      0.189066
      9 C4         10.8610    3.2760   -0.6260 c         1 MOL      0.350573
     10 O2         11.5880    2.5120   -1.2790 o         1 MOL     -0.526433
     11 C5          9.1070    3.4530   -2.4380 c3        1 MOL     -0.239726
     12 C6          8.2970    2.4390   -1.7620 c         1 MOL      0.793882
     13 O3          7.6160    1.6050   -2.4110 o         1 MOL     -0.771454
     14 O4          8.2490    2.3910   -0.5000 o         1 MOL     -0.771454
     15 H4          8.8320    4.8390    0.0450 hn        1 MOL      0.306443
     16 H5         10.6890    4.8550   -2.1750 h1        1 MOL      0.052447
     17 H6          9.8100    2.8890   -3.0560 hc        1 MOL      0.073503
     18 H7          8.5300    4.1060   -3.1030 hc        1 MOL      0.073503
     19 N2         10.9180    3.3050    0.6900 n         1 MOL     -0.429663
     20 C7         11.8240    2.4470    1.4610 c3        1 MOL      0.350005
     21 C8         11.4540    0.9450    1.6230 c         1 MOL      0.365616
     22 O5         12.1880    0.2120    2.2480 o         1 MOL     -0.528979
     23 C9         12.1120    3.1000    2.8240 c3        1 MOL     -0.207901
     24 H8         10.4500    4.0580    1.1800 hn        1 MOL      0.275325
     25 H9         12.8130    2.4350    1.0010 h1        1 MOL      0.017708
     26 H10        12.8620    2.5340    3.3750 hc        1 MOL      0.053118
     27 H11        12.5600    4.0850    2.6790 hc        1 MOL      0.053118
     28 H12        11.1710    3.3120    3.3220 hc        1 MOL      0.053118
     29 N3         10.3400    0.4170    1.0230 n         1 MOL     -0.221021
     30 C10         9.9480   -1.0160    1.2020 c3        1 MOL     -0.013553
     31 C11         9.0160   -1.5510    0.1060 c         1 MOL      0.378723
     32 O6          8.4560   -0.7600   -0.6730 o         1 MOL     -0.473010
     33 C12         9.1340   -1.1610    2.5280 c3        1 MOL     -0.165528
     34 C13         7.9560   -0.2070    2.6210 c         1 MOL      0.711109
     35 O7          8.1310    0.7830    3.4120 o         1 MOL     -0.709008
     36 O8          6.9710   -0.4070    1.8890 o         1 MOL     -0.709008
     37 H13         9.6940    1.0330    0.5460 hn        1 MOL      0.227837
     38 H14        10.8060   -1.6860    1.1670 h1        1 MOL      0.064878
     39 H15         9.9070   -0.8670    3.2300 hc        1 MOL      0.036000
     40 H16         8.8490   -2.2050    2.6350 hc        1 MOL      0.036000
     41 N4          8.8630   -2.8290    0.1000 n         1 MOL     -0.275804
     42 C14         7.9920   -3.5570   -0.8770 c3        1 MOL     -0.153665
     43 C15         6.5140   -3.0370   -1.1770 c         1 MOL      0.553808
     44 O9          5.9770   -2.1810   -0.4780 o         1 MOL     -0.497212
     45 H17         9.3170   -3.3400    0.8360 hn        1 MOL      0.276090
     46 H18         7.8390   -4.6090   -0.6570 h1        1 MOL      0.084512
     47 H19         8.5960   -3.5260   -1.7840 h1        1 MOL      0.084512
     48 N5          5.8960   -3.7320   -2.0890 n         1 MOL     -0.384481
     49 C16         4.5740   -3.5930   -2.6540 c3        1 MOL      0.143861
     50 C17         3.4100   -3.8540   -1.7180 c         1 MOL      0.418076
     51 O10         2.2680   -3.4810   -2.1320 o         1 MOL     -0.454012
     52 C18         4.5590   -4.5520   -3.8730 c3        1 MOL     -0.326613
     53 C19         3.3240   -4.4870   -4.7560 c         1 MOL      0.628394
     54 N6          2.4140   -5.3950   -4.8050 n         1 MOL     -0.701375
     55 O11         3.2110   -3.5650   -5.5890 o         1 MOL     -0.558351
     56 H20         6.3760   -4.4940   -2.5530 hn        1 MOL      0.224968
     57 H21         4.4760   -2.5640   -2.9940 h1        1 MOL      0.090589
     58 H22         4.6190   -5.5520   -3.4400 hc        1 MOL      0.088950
     59 H23         5.4380   -4.2930   -4.4630 hc        1 MOL      0.088950
     60 H24         2.4290   -6.2460   -4.2580 hn        1 MOL      0.361084
     61 H25         1.6750   -5.2450   -5.4710 hn        1 MOL      0.361084
     62 N7          3.5580   -4.5150   -0.6080 n         1 MOL     -0.381973
     63 C20         2.4850   -4.6560    0.3510 c3        1 MOL     -0.101028
     64 C21         2.0190   -3.3190    1.0480 c         1 MOL      0.687676
     65 O12         2.6400   -2.3000    1.0480 o         1 MOL     -0.606399
     66 H26         4.5070   -4.7730   -0.3990 hn        1 MOL      0.280569
     67 H27         2.8380   -5.2850    1.1770 h1        1 MOL      0.091734
     68 H28         1.5890   -5.1860    0.0270 h1        1 MOL      0.091734
     69 N8          0.8220   -3.2740    1.6130 n         1 MOL     -0.403941
     70 C22        -0.1820   -4.3230    1.8870 c3        1 MOL     -0.129994
     71 C23        -1.6200   -3.8850    1.6930 c         1 MOL      0.570379
     72 O13        -2.4290   -4.5320    1.0500 o         1 MOL     -0.538724
     73 C24        -0.0650   -4.8740    3.3610 c3        1 MOL      0.322560
     74 C25         0.8610   -6.1010    3.4240 c3        1 MOL     -0.301447
     75 O14         0.3100   -3.9680    4.3590 oh        1 MOL     -0.629625
     76 H29         0.5640   -2.3710    1.9610 hn        1 MOL      0.300191
     77 H30         0.0290   -5.1420    1.1920 h1        1 MOL      0.123384
     78 H31        -1.0640   -5.1390    3.7040 h1        1 MOL      0.002376
     79 H32         0.3300   -4.4170    5.2040 ho        1 MOL      0.416983
     80 H33         0.3960   -6.9250    2.8980 hc        1 MOL      0.065894
     81 H34         1.8220   -5.8680    2.9630 hc        1 MOL      0.065894
     82 H35         1.0810   -6.3040    4.4780 hc        1 MOL      0.065894
     83 N9         -2.0520   -2.7300    2.1890 n         1 MOL     -0.339625
     84 C26        -3.4200   -2.1970    2.0020 c3        1 MOL     -0.016339
     85 C27        -3.4180   -1.2260    0.8060 c         1 MOL      0.677809
     86 O15        -2.3490   -0.6500    0.4890 o         1 MOL     -0.602839
     87 C28        -3.9650   -1.4550    3.2700 c3        1 MOL      0.076794
     88 C29        -3.1140   -0.2180    3.6410 c3        1 MOL     -0.154156
     89 C30        -3.9060   -2.3820    4.5210 c3        1 MOL     -0.426624
     90 C31        -3.9840    0.8610    4.3610 c3        1 MOL     -0.044068
     91 H36        -1.3950   -2.1580    2.7110 hn        1 MOL      0.225652
     92 H37        -4.1320   -2.9630    1.6860 h1        1 MOL      0.131844
     93 H38        -5.0150   -1.2210    3.0940 hc        1 MOL      0.099151
     94 H39        -2.6960    0.3680    2.8130 hc        1 MOL      0.056534
     95 H40        -2.2980   -0.4510    4.3310 hc        1 MOL      0.056534
     96 H41        -4.6050   -3.1810    4.2680 hc        1 MOL      0.095743
     97 H42        -2.9150   -2.7350    4.7870 hc        1 MOL      0.095743
     98 H43        -4.2970   -1.8130    5.3670 hc        1 MOL      0.095743
     99 H44        -3.3700    1.7170    4.6320 hc        1 MOL      0.029609
    100 H45        -4.7650    1.2290    3.6840 hc        1 MOL      0.029609
    101 H46        -4.4100    0.3950    5.2410 hc        1 MOL      0.029609
    102 N10        -4.5070   -1.0370    0.0250 n         1 MOL     -0.603785
    103 C32        -5.7450   -1.7820    0.0730 c3        1 MOL     -0.029193
    104 C33        -6.9190   -0.9750   -0.5060 c         1 MOL      0.477161
    105 O16        -6.7940    0.0360   -1.2540 o         1 MOL     -0.539634
    106 C34        -5.6230   -3.0640   -0.7270 c3        1 MOL      0.088647
    107 C35        -4.7750   -3.0400   -1.9840 c         1 MOL      0.656288
    108 O17        -3.6280   -3.6030   -2.0100 o         1 MOL     -0.703153
    109 O18        -5.4110   -2.8250   -3.0520 o         1 MOL     -0.703153
    110 H47        -4.4380   -0.3790   -0.7480 hn        1 MOL      0.351496
    111 H48        -5.9370   -1.9720    1.1360 h1        1 MOL      0.037041
    112 H49        -6.6320   -3.3400   -1.0510 hc        1 MOL     -0.056103
    113 H50        -5.2090   -3.7950   -0.0270 hc        1 MOL     -0.056103
    114 N11        -8.1390   -1.3430   -0.0940 n         1 MOL     -0.385442
    115 C36        -9.4060   -0.6490   -0.3700 c3        1 MOL      0.411418
    116 C37        -9.9130    0.2100    0.8140 c         1 MOL      0.194832
    117 O19        -9.8090   -0.3380    1.9340 o         1 MOL     -0.503196
    118 C38       -10.3840   -1.7300   -0.7630 c3        1 MOL     -0.179355
    119 C39       -11.7430   -1.2740   -1.2950 ca        1 MOL      0.071756
    120 C40       -12.7770   -0.7270   -0.4960 ca        1 MOL     -0.169353
    121 C41       -11.8960   -1.0710   -2.6930 ca        1 MOL     -0.169353
    122 C42       -13.9090   -0.1660   -1.0430 ca        1 MOL     -0.137522
    123 C43       -13.0340   -0.4880   -3.2710 ca        1 MOL     -0.137522
    124 C44       -14.0410   -0.0970   -2.4230 ca        1 MOL     -0.067175
    125 H51        -8.1840   -2.1150    0.5560 hn        1 MOL      0.231764
    126 H52        -9.3050   -0.0600   -1.2740 h1        1 MOL      0.006389
    127 H53       -10.5890   -2.4240    0.0470 hc        1 MOL      0.057945
    128 H54        -9.8810   -2.2900   -1.5430 hc        1 MOL      0.057945
    129 H55       -12.6860   -0.7370    0.5810 ha        1 MOL      0.128020
    130 H56       -11.0030   -1.2510   -3.2780 ha        1 MOL      0.128020
    131 H57       -14.6630    0.2120   -0.3820 ha        1 MOL      0.113491
    132 H58       -13.1690   -0.2330   -4.3190 ha        1 MOL      0.113491
    133 H59       -14.9590    0.3510   -2.7730 ha        1 MOL      0.072616
    134 N12       -10.4810    1.3980    0.5500 n         1 MOL     -0.015730
    135 C45       -10.6450    2.0500   -0.7370 c3        1 MOL     -0.106202
    136 C46        -9.3830    2.8510   -1.1400 c         1 MOL      0.507790
    137 O20        -9.2310    3.1700   -2.3230 o         1 MOL     -0.598384
    138 C47       -11.8760    3.0000   -0.5190 c3        1 MOL      0.138203
    139 C48       -11.7950    3.3860    0.8980 c3        1 MOL     -0.139670
    140 C49       -11.0200    2.2890    1.6160 c3        1 MOL      0.012512
    141 H60       -10.8210    1.2900   -1.4880 h1        1 MOL      0.094252
    142 H61       -11.8510    3.8310   -1.2150 hc        1 MOL     -0.011686
    143 H62       -12.7560    2.4990   -0.9230 hc        1 MOL     -0.011686
    144 H63       -11.3020    4.3620    0.9240 hc        1 MOL      0.041182
    145 H64       -12.7900    3.4610    1.3290 hc        1 MOL      0.041182
    146 H65       -10.1600    2.6040    2.2070 h1        1 MOL      0.041281
    147 H66       -11.7220    1.7360    2.2310 h1        1 MOL      0.041281
    148 N13        -8.4600    3.1630   -0.2480 n         1 MOL     -0.358423
    149 C50        -7.1700    3.8080   -0.3680 c3        1 MOL      0.342702
    150 C51        -7.2920    5.1230   -1.1690 c         1 MOL      0.371787
    151 O21        -7.6330    6.1530   -0.6190 o         1 MOL     -0.558068
    152 C52        -6.7130    4.1970    1.0230 c3        1 MOL     -0.302898
    153 C53        -6.4040    3.0380    1.9540 c3        1 MOL     -0.126930
    154 C54        -6.6500    3.4040    3.4160 c         1 MOL      0.706687
    155 O22        -7.4930    2.7090    4.0350 o         1 MOL     -0.731831
    156 O23        -5.9100    4.2160    4.0130 o         1 MOL     -0.731831
    157 H67        -8.7180    2.8140    0.6650 hn        1 MOL      0.284629
    158 H68        -6.4370    3.0970   -0.7600 h1        1 MOL      0.021299
    159 H69        -7.4670    4.9010    1.3740 hc        1 MOL      0.085206
    160 H70        -5.7190    4.6160    0.8420 hc        1 MOL      0.085206
    161 H71        -5.3740    2.7380    1.7880 hc        1 MOL      0.025485
    162 H72        -7.0180    2.1730    1.6800 hc        1 MOL      0.025485
    163 N14        -7.0370    5.2500   -2.4650 n         1 MOL     -0.265436
    164 C55        -6.4520    4.2320   -3.3880 c3        1 MOL     -0.180591
    165 H73        -5.3640    4.2970   -3.3570 h1        1 MOL      0.084427
    166 H74        -6.7650    3.2350   -3.0770 h1        1 MOL      0.084427
    167 H75        -6.7970    4.4210   -4.4050 h1        1 MOL      0.084427
    168 H76        -7.1470    6.1390   -2.9170 hn        1 MOL      0.248878
    169 Ca1         6.1800    0.5990   -0.5280 Ca        1 MOL      1.689185
    170 O24         4.6550    2.5340   -1.5230 oh        1 MOL     -0.834056
    171 H77         4.2250    3.2800   -1.1020 ho        1 MOL      0.421011
    172 H78         4.6940    2.7670   -2.4470 ho        1 MOL      0.421011
    173 O25         3.7860   -0.1020    0.1450 oh        1 MOL     -0.834056
    174 H79         2.9890    0.4180    0.2700 ho        1 MOL      0.421011
    175 H80         3.5780   -0.9510    0.5360 ho        1 MOL      0.421011
    176 O26         5.5330    2.3480    1.3330 oh        1 MOL     -0.834056
    177 H81         5.6980    2.1970    2.2690 ho        1 MOL      0.421011
    178 H82         5.8400    3.2290    1.1750 ho        1 MOL      0.421011
    179 O27         5.0840   -0.2610   -2.8630 oh        1 MOL     -0.834056
    180 H83         5.5100   -0.4510   -3.6970 ho        1 MOL      0.421011
    181 H84         4.2060    0.0540   -3.1100 ho        1 MOL      0.421011
@<TRIPOS>BOND
     1    1    2 1   
     2    1    4 1   
     3    1    5 1   
     4    1    6 1   
     5    2    3 2   
     6    2    7 1   
     7    7    8 1   
     8    7   15 1   
     9    8    9 1   
    10    8   11 1   
    11    8   16 1   
    12    9   10 2   
    13    9   19 1   
    14   11   12 1   
    15   11   17 1   
    16   11   18 1   
    17   12   13 1   
    18   12   14 1   
    19   19   20 1   
    20   19   24 1   
    21   20   21 1   
    22   20   23 1   
    23   20   25 1   
    24   21   22 2   
    25   21   29 1   
    26   23   26 1   
    27   23   27 1   
    28   23   28 1   
    29   29   30 1   
    30   29   37 1   
    31   30   31 1   
    32   30   33 1   
    33   30   38 1   
    34   31   32 2   
    35   31   41 1   
    36   33   34 1   
    37   33   39 1   
    38   33   40 1   
    39   34   35 1   
    40   34   36 1   
    41   41   42 1   
    42   41   45 1   
    43   42   43 1   
    44   42   46 1   
    45   42   47 1   
    46   43   44 2   
    47   43   48 1   
    48   48   49 1   
    49   48   56 1   
    50   49   50 1   
    51   49   52 1   
    52   49   57 1   
    53   50   51 2   
    54   50   62 1   
    55   52   53 1   
    56   52   58 1   
    57   52   59 1   
    58   53   54 1   
    59   53   55 2   
    60   54   60 1   
    61   54   61 1   
    62   62   63 1   
    63   62   66 1   
    64   63   64 1   
    65   63   67 1   
    66   63   68 1   
    67   64   65 2   
    68   64   69 1   
    69   69   70 1   
    70   69   76 1   
    71   70   71 1   
    72   70   73 1   
    73   70   77 1   
    74   71   72 2   
    75   71   83 1   
    76   73   74 1   
    77   73   75 1   
    78   73   78 1   
    79   74   80 1   
    80   74   81 1   
    81   74   82 1   
    82   75   79 1   
    83   83   84 1   
    84   83   91 1   
    85   84   85 1   
    86   84   87 1   
    87   84   92 1   
    88   85   86 2   
    89   85  102 1   
    90   87   88 1   
    91   87   89 1   
    92   87   93 1   
    93   88   90 1   
    94   88   94 1   
    95   88   95 1   
    96   89   96 1   
    97   89   97 1   
    98   89   98 1   
    99   90   99 1   
   100   90  100 1   
   101   90  101 1   
   102  102  103 1   
   103  102  110 1   
   104  103  104 1   
   105  103  106 1   
   106  103  111 1   
   107  104  105 2   
   108  104  114 1   
   109  106  107 1   
   110  106  112 1   
   111  106  113 1   
   112  107  108 1   
   113  107  109 1   
   114  114  115 1   
   115  114  125 1   
   116  115  116 1   
   117  115  118 1   
   118  115  126 1   
   119  116  117 2   
   120  116  134 1   
   121  118  119 1   
   122  118  127 1   
   123  118  128 1   
   124  119  120 ar  
   125  119  121 ar  
   126  120  122 ar  
   127  120  129 1   
   128  121  123 ar  
   129  121  130 1   
   130  122  124 ar  
   131  122  131 1   
   132  123  124 ar  
   133  123  132 1   
   134  124  133 1   
   135  134  135 1   
   136  134  140 1   
   137  135  136 1   
   138  135  138 1   
   139  135  141 1   
   140  136  137 2   
   141  136  148 1   
   142  138  139 1   
   143  138  142 1   
   144  138  143 1   
   145  139  140 1   
   146  139  144 1   
   147  139  145 1   
   148  140  146 1   
   149  140  147 1   
   150  148  149 1   
   151  148  157 1   
   152  149  150 1   
   153  149  152 1   
   154  149  158 1   
   155  150  151 2   
   156  150  163 1   
   157  152  153 1   
   158  152  159 1   
   159  152  160 1   
   160  153  154 1   
   161  153  161 1   
   162  153  162 1   
   163  154  155 1   
   164  154  156 1   
   165  163  164 1   
   166  163  168 1   
   167  164  165 1   
   168  164  166 1   
   169  164  167 1   
   170  170  171 1   
   171  170  172 1   
   172  173  174 1   
   173  173  175 1   
   174  176  177 1   
   175  176  178 1   
   176  179  180 1   
   177  179  181 1   
@<TRIPOS>SUBSTRUCTURE
     1 MOL         1 TEMP              0 ****  ****    0 ROOT
