@<TRIPOS>MOLECULE
MOL
  178   175     1     0     0
SMALL
resp


@<TRIPOS>ATOM
      1 C1          1.2820   -0.2310    5.0460 c3        1 MOL     -0.185616
      2 C2          2.4740   -0.0770    4.0680 c         1 MOL      0.630347
      3 O1          2.4110    0.6780    3.0840 o         1 MOL     -0.560085
      4 H1          0.6930   -1.1040    4.7650 hc        1 MOL      0.041031
      5 H2          1.6580   -0.3580    6.0600 hc        1 MOL      0.041031
      6 H3          0.6560    0.6600    4.9980 hc        1 MOL      0.041031
      7 N1          3.6020   -0.7170    4.2670 n         1 MOL     -0.554161
      8 C3          4.8360   -0.4570    3.5860 c3        1 MOL      0.225805
      9 C4          5.3510   -1.5070    2.5280 c         1 MOL      0.512378
     10 O2          6.3480   -1.2580    1.8070 o         1 MOL     -0.399328
     11 C5          5.8800   -0.2020    4.6790 c3        1 MOL     -0.182021
     12 C6          7.2610    0.0790    4.1950 c         1 MOL      0.697482
     13 O3          7.4790    1.2470    3.7620 o         1 MOL     -0.715941
     14 O4          8.1410   -0.7750    4.1830 o         1 MOL     -0.715941
     15 H4          3.5340   -1.3810    5.0220 hn        1 MOL      0.289705
     16 H5          4.7640    0.4890    3.0500 h1        1 MOL      0.070943
     17 H6          5.7220   -1.0580    5.3320 hc        1 MOL     -0.010097
     18 H7          5.5160    0.6090    5.3010 hc        1 MOL     -0.010097
     19 N2          4.7460   -2.6980    2.3970 n         1 MOL     -0.580983
     20 C7          4.9750   -3.6750    1.3550 c3        1 MOL      0.274914
     21 C8          4.8050   -3.1800   -0.1130 c         1 MOL      0.421631
     22 O5          3.7390   -3.4560   -0.6390 o         1 MOL     -0.574694
     23 C9          6.3230   -4.3180    1.6470 c3        1 MOL     -0.419405
     24 H8          4.1140   -3.0090    3.1180 hn        1 MOL      0.311875
     25 H9          4.2180   -4.4410    1.5190 h1        1 MOL      0.064255
     26 H10         7.1430   -3.6030    1.5650 hc        1 MOL      0.104637
     27 H11         6.2860   -4.7400    2.6580 hc        1 MOL      0.104637
     28 H12         6.5190   -5.1490    0.9730 hc        1 MOL      0.104637
     29 N3          5.7870   -2.5320   -0.6030 n         1 MOL     -0.159267
     30 C10         5.8840   -1.9040   -1.9620 c3        1 MOL      0.051700
     31 C11         6.1420   -0.4000   -1.8910 c         1 MOL      0.461229
     32 O6          6.3210    0.2350   -2.9670 o         1 MOL     -0.547200
     33 C12         6.9440   -2.5420   -2.9310 c3        1 MOL     -0.260635
     34 C13         6.6910   -4.0010   -3.0790 c         1 MOL      0.773310
     35 O7          7.5500   -4.8200   -2.7510 o         1 MOL     -0.732499
     36 O8          5.5960   -4.4570   -3.4630 o         1 MOL     -0.732499
     37 H13         6.5940   -2.3270   -0.0340 hn        1 MOL      0.201708
     38 H14         4.9230   -2.1460   -2.4000 h1        1 MOL      0.035305
     39 H15         7.9820   -2.2840   -2.7430 hc        1 MOL      0.047631
     40 H16         6.6880   -2.1310   -3.9080 hc        1 MOL      0.047631
     41 N4          6.2100    0.2560   -0.7180 n         1 MOL     -0.143353
     42 C14         6.4640    1.6570   -0.6140 c3        1 MOL      0.008303
     43 C15         5.4110    2.4110   -1.3280 c         1 MOL      0.618953
     44 O9          5.7660    3.4470   -1.8550 o         1 MOL     -0.583176
     45 H17         6.0240   -0.2200    0.1550 hn        1 MOL      0.069389
     46 H18         7.4350    1.8690   -1.0730 h1        1 MOL      0.040641
     47 H19         6.4510    1.9440    0.4380 h1        1 MOL      0.040641
     48 N5          4.1930    1.9030   -1.3860 n         1 MOL     -0.379563
     49 C16         3.0520    2.4900   -2.0930 c3        1 MOL     -0.013669
     50 C17         2.6190    3.8850   -1.4300 c         1 MOL      0.571657
     51 O10         2.8270    4.1210   -0.2720 o         1 MOL     -0.494099
     52 C18         1.8450    1.5090   -2.1470 c3        1 MOL     -0.485629
     53 C19         2.1030    0.2720   -2.9960 c         1 MOL      0.859985
     54 N6          2.2320    0.3710   -4.2680 n         1 MOL     -0.729588
     55 O11         2.1180   -0.8300   -2.5330 o         1 MOL     -0.667486
     56 H20         4.0490    1.0350   -0.8950 hn        1 MOL      0.240483
     57 H21         3.4220    2.8320   -3.0650 h1        1 MOL      0.056929
     58 H22         0.9180    1.9360   -2.5310 hc        1 MOL      0.162698
     59 H23         1.5610    1.0420   -1.2010 hc        1 MOL      0.162698
     60 H24         2.1950    1.3000   -4.6730 hn        1 MOL      0.326527
     61 H25         2.1820   -0.4300   -4.8660 hn        1 MOL      0.326527
     62 N7          2.1390    4.8090   -2.2260 n         1 MOL     -0.439949
     63 C20         1.7420    6.1940   -1.8510 c3        1 MOL     -0.065700
     64 C21         0.2580    6.4680   -1.9830 c         1 MOL      0.615754
     65 O12        -0.4730    5.7520   -2.6370 o         1 MOL     -0.512081
     66 H26         2.0020    4.6600   -3.2160 hn        1 MOL      0.273229
     67 H27         2.1960    6.9500   -2.4790 h1        1 MOL      0.082670
     68 H28         2.0530    6.4030   -0.8270 h1        1 MOL      0.082670
     69 N8         -0.2010    7.4930   -1.2310 n         1 MOL     -0.499038
     70 C22        -1.6220    7.7880   -1.0310 c3        1 MOL     -0.320702
     71 C23        -2.3780    6.7410   -0.1910 c         1 MOL      0.483904
     72 O13        -3.3430    7.1350    0.4760 o         1 MOL     -0.549754
     73 C24        -1.7320    9.1900   -0.4030 c3        1 MOL      0.531351
     74 C25        -1.2090    9.1420    1.0960 c3        1 MOL     -0.306742
     75 O14        -1.0570   10.1820   -1.0520 oh        1 MOL     -0.608822
     76 H29         0.4140    8.1380   -0.7600 hn        1 MOL      0.247530
     77 H30        -1.9280    7.8420   -2.0780 h1        1 MOL      0.163498
     78 H31        -2.8020    9.4000   -0.3610 h1        1 MOL      0.015710
     79 H32        -0.1800    9.8100   -0.9440 ho        1 MOL      0.369427
     80 H33        -2.0280    8.8260    1.7360 hc        1 MOL      0.066046
     81 H34        -0.3660    8.4700    1.2800 hc        1 MOL      0.066046
     82 H35        -0.9140   10.1510    1.3730 hc        1 MOL      0.066046
     83 N9         -1.9470    5.4930   -0.1620 n         1 MOL     -0.127713
     84 C26        -2.3440    4.3680    0.6740 c3        1 MOL     -0.114395
     85 C27        -2.0970    3.1000   -0.1840 c         1 MOL      0.444706
     86 O15        -1.4740    3.1650   -1.1990 o         1 MOL     -0.412819
     87 C28        -1.5950    4.3920    2.0300 c3        1 MOL      0.266399
     88 C29        -0.0410    4.2140    1.8790 c3        1 MOL     -0.094283
     89 C30        -1.8290    5.6470    2.8040 c3        1 MOL     -0.288362
     90 C31         0.8130    4.4070    3.1480 c3        1 MOL     -0.498198
     91 H36        -1.1590    5.2950   -0.7560 hn        1 MOL      0.102625
     92 H37        -3.3890    4.5010    0.9200 h1        1 MOL      0.077385
     93 H38        -1.9830    3.5070    2.5340 hc        1 MOL     -0.039791
     94 H39         0.3660    4.8960    1.1440 hc        1 MOL      0.135146
     95 H40         0.0920    3.1930    1.5210 hc        1 MOL      0.135146
     96 H41        -1.0000    6.3300    2.6160 hc        1 MOL      0.066014
     97 H42        -2.8250    6.0080    2.5440 hc        1 MOL      0.066014
     98 H43        -1.7310    5.3620    3.8550 hc        1 MOL      0.066014
     99 H44         0.3620    4.0470    4.0640 hc        1 MOL      0.137514
    100 H45         1.7210    3.8440    2.9180 hc        1 MOL      0.137514
    101 H46         1.0730    5.4660    3.1060 hc        1 MOL      0.137514
    102 N10        -2.6780    1.9490    0.1550 n         1 MOL     -0.536965
    103 C32        -2.2990    0.6600   -0.4500 c3        1 MOL      0.158345
    104 C33        -3.4020   -0.3500   -0.6070 c         1 MOL      0.482503
    105 O16        -3.2810   -1.5660   -0.2400 o         1 MOL     -0.515225
    106 C34        -1.0950    0.0880    0.3940 c3        1 MOL      0.008072
    107 C35        -0.2470   -0.9250   -0.3600 c         1 MOL      0.703207
    108 O17         0.7730   -1.4690    0.1220 o         1 MOL     -0.768047
    109 O18        -0.5260   -1.2780   -1.5280 o         1 MOL     -0.768047
    110 H47        -3.3860    1.9760    0.8760 hn        1 MOL      0.288296
    111 H48        -1.9200    0.8370   -1.4600 h1        1 MOL      0.045681
    112 H49        -1.5590   -0.4390    1.2210 hc        1 MOL     -0.010928
    113 H50        -0.4810    0.9290    0.7050 hc        1 MOL     -0.010928
    114 N11        -4.6110    0.1780   -0.8960 n         1 MOL     -0.515911
    115 C36        -5.8940   -0.5560   -1.0590 c3        1 MOL      0.350495
    116 C37        -6.1010   -1.5820    0.0680 c         1 MOL      0.234579
    117 O19        -6.0950   -1.2070    1.2390 o         1 MOL     -0.469150
    118 C38        -7.0400    0.4660   -1.0780 c3        1 MOL     -0.316391
    119 C39        -8.4030   -0.1830   -1.2840 ca        1 MOL      0.093393
    120 C40        -8.6190   -0.7710   -2.5130 ca        1 MOL     -0.168269
    121 C41        -9.4090   -0.1760   -0.2380 ca        1 MOL     -0.168269
    122 C42        -9.8590   -1.4050   -2.7500 ca        1 MOL     -0.133871
    123 C43       -10.5700   -0.9770   -0.4070 ca        1 MOL     -0.133871
    124 C44       -10.7520   -1.5600   -1.6730 ca        1 MOL     -0.078862
    125 H51        -4.6460    1.1750   -1.0390 hn        1 MOL      0.279954
    126 H52        -5.9040   -1.0160   -2.0520 h1        1 MOL     -0.011706
    127 H53        -6.8100    1.0840   -1.9490 hc        1 MOL      0.104837
    128 H54        -7.0550    1.0560   -0.1560 hc        1 MOL      0.104837
    129 H55        -7.8740   -0.7010   -3.2850 ha        1 MOL      0.142590
    130 H56        -9.2180    0.2320    0.7560 ha        1 MOL      0.142590
    131 H57       -10.1200   -1.8620   -3.6990 ha        1 MOL      0.119174
    132 H58       -11.2310   -1.0900    0.4380 ha        1 MOL      0.119174
    133 H59       -11.6720   -2.1060   -1.8450 ha        1 MOL      0.082521
    134 N12        -6.1820   -2.9170   -0.3450 n         1 MOL      0.045269
    135 C45        -6.4030   -3.9040    0.6380 c3        1 MOL      0.069973
    136 C46        -5.4140   -4.0420    1.8720 c         1 MOL      0.181142
    137 O20        -5.8390   -4.5590    2.8630 o         1 MOL     -0.509883
    138 C47        -6.7400   -5.2030   -0.0800 c3        1 MOL      0.096397
    139 C48        -7.0960   -4.7130   -1.4210 c3        1 MOL     -0.057071
    140 C49        -6.2210   -3.5130   -1.6110 c3        1 MOL     -0.038380
    141 H60        -7.3670   -3.6550    1.0910 h1        1 MOL      0.039804
    142 H61        -5.8990   -5.8880   -0.0530 hc        1 MOL     -0.000052
    143 H62        -7.5510   -5.8020    0.3340 hc        1 MOL     -0.000052
    144 H63        -6.9050   -5.4990   -2.1620 hc        1 MOL      0.007132
    145 H64        -8.1320   -4.3930   -1.4330 hc        1 MOL      0.007132
    146 H65        -5.2370   -3.8550   -1.9410 h1        1 MOL      0.031049
    147 H66        -6.7590   -2.8030   -2.2230 h1        1 MOL      0.031049
    148 N13        -4.1990   -3.4910    1.8460 n         1 MOL      0.057849
    149 C50        -3.1780   -3.4850    2.8860 c3        1 MOL     -0.150172
    150 C51        -3.2460   -2.1870    3.7670 c         1 MOL      0.458724
    151 O21        -2.8070   -2.2450    4.8820 o         1 MOL     -0.544703
    152 C52        -1.7760   -3.6870    2.2310 c3        1 MOL      0.039317
    153 C53        -1.6960   -4.8580    1.2860 c3        1 MOL     -0.049042
    154 C54        -0.5920   -4.6780    0.2610 c         1 MOL      0.731541
    155 O22         0.6090   -4.5950    0.5480 o         1 MOL     -0.785376
    156 O23        -0.9240   -4.4050   -0.9250 o         1 MOL     -0.785376
    157 H67        -3.9160   -3.1550    0.9390 hn        1 MOL      0.166822
    158 H68        -3.2220   -4.3430    3.5500 h1        1 MOL      0.098583
    159 H69        -1.0010   -3.7530    3.0030 hc        1 MOL      0.041902
    160 H70        -1.5900   -2.7870    1.6410 hc        1 MOL      0.041902
    161 H71        -2.5820   -4.9200    0.6710 hc        1 MOL     -0.027657
    162 H72        -1.5590   -5.8180    1.7860 hc        1 MOL     -0.027657
    163 N14        -4.0270   -1.1850    3.3630 n         1 MOL     -0.118153
    164 C55        -4.5310   -0.0330    4.1710 c3        1 MOL     -0.343548
    165 H73        -3.6870    0.5630    4.5190 h1        1 MOL      0.123529
    166 H74        -5.1820    0.5870    3.5540 h1        1 MOL      0.123529
    167 H75        -5.0900   -0.4060    5.0280 h1        1 MOL      0.123529
    168 H76        -4.4830   -1.2440    2.4640 hn        1 MOL      0.183915
    169 Ca1         1.1960   -3.2270   -1.7420 Ca        1 MOL      1.824762
    170 O24         2.9730   -3.8090   -3.6740 oh        1 MOL     -0.853185
    171 H77         3.9120   -3.9590   -3.5330 ho        1 MOL      0.409541
    172 H78         2.7690   -4.2780   -4.4710 ho        1 MOL      0.409541
    173 O25         0.1780   -3.1400   -4.3490 oh        1 MOL     -0.853185
    174 H79        -0.2900   -2.3830   -4.6910 ho        1 MOL      0.409541
    175 H80         0.0790   -3.8150   -5.0210 ho        1 MOL      0.409541
    176 O26         1.2880   -5.7700   -2.4130 oh        1 MOL     -0.853185
    177 H81         0.6430   -6.1560   -3.0000 ho        1 MOL      0.409541
    178 H82         1.5930   -6.4970   -1.8760 ho        1 MOL      0.409541
@<TRIPOS>BOND
     1    1    2 1   
     2    1    4 1   
     3    1    5 1   
     4    1    6 1   
     5    2    3 2   
     6    2    7 1   
     7    7    8 1   
     8    7   15 1   
     9    8    9 1   
    10    8   11 1   
    11    8   16 1   
    12    9   10 2   
    13    9   19 1   
    14   11   12 1   
    15   11   17 1   
    16   11   18 1   
    17   12   13 1   
    18   12   14 1   
    19   19   20 1   
    20   19   24 1   
    21   20   21 1   
    22   20   23 1   
    23   20   25 1   
    24   21   22 2   
    25   21   29 1   
    26   23   26 1   
    27   23   27 1   
    28   23   28 1   
    29   29   30 1   
    30   29   37 1   
    31   30   31 1   
    32   30   33 1   
    33   30   38 1   
    34   31   32 2   
    35   31   41 1   
    36   33   34 1   
    37   33   39 1   
    38   33   40 1   
    39   34   35 1   
    40   34   36 1   
    41   41   42 1   
    42   41   45 1   
    43   42   43 1   
    44   42   46 1   
    45   42   47 1   
    46   43   44 2   
    47   43   48 1   
    48   48   49 1   
    49   48   56 1   
    50   49   50 1   
    51   49   52 1   
    52   49   57 1   
    53   50   51 2   
    54   50   62 1   
    55   52   53 1   
    56   52   58 1   
    57   52   59 1   
    58   53   54 1   
    59   53   55 2   
    60   54   60 1   
    61   54   61 1   
    62   62   63 1   
    63   62   66 1   
    64   63   64 1   
    65   63   67 1   
    66   63   68 1   
    67   64   65 2   
    68   64   69 1   
    69   69   70 1   
    70   69   76 1   
    71   70   71 1   
    72   70   73 1   
    73   70   77 1   
    74   71   72 2   
    75   71   83 1   
    76   73   74 1   
    77   73   75 1   
    78   73   78 1   
    79   74   80 1   
    80   74   81 1   
    81   74   82 1   
    82   75   79 1   
    83   83   84 1   
    84   83   91 1   
    85   84   85 1   
    86   84   87 1   
    87   84   92 1   
    88   85   86 2   
    89   85  102 1   
    90   87   88 1   
    91   87   89 1   
    92   87   93 1   
    93   88   90 1   
    94   88   94 1   
    95   88   95 1   
    96   89   96 1   
    97   89   97 1   
    98   89   98 1   
    99   90   99 1   
   100   90  100 1   
   101   90  101 1   
   102  102  103 1   
   103  102  110 1   
   104  103  104 1   
   105  103  106 1   
   106  103  111 1   
   107  104  105 2   
   108  104  114 1   
   109  106  107 1   
   110  106  112 1   
   111  106  113 1   
   112  107  108 1   
   113  107  109 1   
   114  114  115 1   
   115  114  125 1   
   116  115  116 1   
   117  115  118 1   
   118  115  126 1   
   119  116  117 2   
   120  116  134 1   
   121  118  119 1   
   122  118  127 1   
   123  118  128 1   
   124  119  120 ar  
   125  119  121 ar  
   126  120  122 ar  
   127  120  129 1   
   128  121  123 ar  
   129  121  130 1   
   130  122  124 ar  
   131  122  131 1   
   132  123  124 ar  
   133  123  132 1   
   134  124  133 1   
   135  134  135 1   
   136  134  140 1   
   137  135  136 1   
   138  135  138 1   
   139  135  141 1   
   140  136  137 2   
   141  136  148 1   
   142  138  139 1   
   143  138  142 1   
   144  138  143 1   
   145  139  140 1   
   146  139  144 1   
   147  139  145 1   
   148  140  146 1   
   149  140  147 1   
   150  148  149 1   
   151  148  157 1   
   152  149  150 1   
   153  149  152 1   
   154  149  158 1   
   155  150  151 2   
   156  150  163 1   
   157  152  153 1   
   158  152  159 1   
   159  152  160 1   
   160  153  154 1   
   161  153  161 1   
   162  153  162 1   
   163  154  155 1   
   164  154  156 1   
   165  163  164 1   
   166  163  168 1   
   167  164  165 1   
   168  164  166 1   
   169  164  167 1   
   170  170  171 1   
   171  170  172 1   
   172  173  174 1   
   173  173  175 1   
   174  176  177 1   
   175  176  178 1   
@<TRIPOS>SUBSTRUCTURE
     1 MOL         1 TEMP              0 ****  ****    0 ROOT
