@<TRIPOS>MOLECULE
MOL
  192   187     1     0     0
SMALL
resp


@<TRIPOS>ATOM
      1 C1         -5.6170   -4.4200    3.7660 c3        1 MOL     -0.181098
      2 C2         -5.1170   -3.4610    2.7020 c         1 MOL      0.757167
      3 O1         -4.6090   -3.8970    1.7180 o         1 MOL     -0.576396
      4 H1         -5.6780   -5.4250    3.3490 hc        1 MOL      0.037953
      5 H2         -4.9260   -4.4180    4.6100 hc        1 MOL      0.037953
      6 H3         -6.6050   -4.1060    4.1040 hc        1 MOL      0.037953
      7 N1         -5.2640   -2.1620    2.8750 n         1 MOL     -0.534859
      8 C3         -4.9280   -1.1330    1.9240 c3        1 MOL     -0.041124
      9 C4         -3.4780   -0.9410    1.8330 c         1 MOL     -0.007723
     10 O2         -3.0130   -0.3350    0.8310 o         1 MOL     -0.286036
     11 C5         -5.5690    0.1320    2.2860 c3        1 MOL      0.081689
     12 C6         -5.5750    0.5290    3.7690 c         1 MOL      0.617979
     13 O3         -4.9450    1.5510    4.1450 o         1 MOL     -0.665086
     14 O4         -6.3550   -0.0910    4.5440 o         1 MOL     -0.665086
     15 H4         -5.5400   -1.8440    3.7940 hn        1 MOL      0.288766
     16 H5         -5.2330   -1.5030    0.9440 h1        1 MOL      0.145031
     17 H6         -6.5910    0.2270    1.9240 hc        1 MOL      0.004525
     18 H7         -5.0410    0.8950    1.7200 hc        1 MOL      0.004525
     19 N2         -2.6090   -1.4210    2.7800 n         1 MOL     -0.053297
     20 C7         -1.1270   -1.3810    2.7130 c3        1 MOL     -0.050815
     21 C8         -0.5210   -2.5910    1.9540 c         1 MOL      0.515009
     22 O5         -0.9910   -3.6880    2.2600 o         1 MOL     -0.547033
     23 C9         -0.5410   -1.2250    4.1540 c3        1 MOL     -0.000972
     24 C10        -0.4680    0.2410    4.6650 c3        1 MOL     -0.277437
     25 C11        -1.8850    0.7900    4.8790 c3        1 MOL      0.391662
     26 C12        -1.9090    1.9260    5.8770 c3        1 MOL      0.008073
     27 N3         -3.1290    2.7290    5.8350 n4        1 MOL     -0.311318
     28 H8         -2.8830   -2.1070    3.4680 hn        1 MOL      0.225314
     29 H9         -0.8300   -0.4970    2.1580 h1        1 MOL      0.064424
     30 H10         0.5330   -1.3910    4.1210 hc        1 MOL      0.045519
     31 H11        -1.0780   -1.8390    4.8800 hc        1 MOL      0.045519
     32 H12        -0.0110    0.8480    3.8860 hc        1 MOL      0.066959
     33 H13         0.0870    0.1880    5.6060 hc        1 MOL      0.066959
     34 H14        -2.5410    0.0370    5.3120 hc        1 MOL     -0.090606
     35 H15        -2.3050    1.0970    3.9280 hc        1 MOL     -0.090606
     36 H16        -1.1260    2.5930    5.5180 hx        1 MOL      0.050233
     37 H17        -1.6430    1.5640    6.8720 hx        1 MOL      0.050233
     38 H18        -2.9230    3.6970    5.6170 hn        1 MOL      0.285475
     39 H19        -3.8790    2.3300    5.2810 hn        1 MOL      0.285475
     40 H20        -3.5720    2.7700    6.7450 hn        1 MOL      0.285475
     41 N4          0.3260   -2.5060    0.9820 n         1 MOL     -0.302315
     42 C13         1.0880   -1.3630    0.4520 c3        1 MOL     -0.154707
     43 C14         1.5480   -0.2710    1.5370 c         1 MOL      0.260305
     44 O6          1.0930    0.9040    1.4320 o         1 MOL     -0.422983
     45 C15         0.3160   -0.7070   -0.7290 c3        1 MOL     -0.000529
     46 C16        -0.1230   -1.6000   -1.9180 c         1 MOL      0.464997
     47 O7          0.4310   -2.7180   -2.0810 o         1 MOL     -0.697353
     48 O8         -0.9530   -1.2060   -2.8310 o         1 MOL     -0.697353
     49 H21         0.3920   -3.3330    0.4100 hn        1 MOL      0.266516
     50 H22         2.0240   -1.6570   -0.0290 h1        1 MOL      0.125382
     51 H23         0.9740    0.0030   -1.2390 hc        1 MOL      0.105563
     52 H24        -0.5480   -0.0940   -0.4750 hc        1 MOL      0.105563
     53 N5          2.6050   -0.5430    2.2720 n         1 MOL     -0.305176
     54 C17         3.2890   -1.8670    2.2840 c3        1 MOL      0.324152
     55 C18         4.0790   -2.0630    3.5310 c         1 MOL      0.351438
     56 O9          3.7600   -1.4980    4.6150 o         1 MOL     -0.522671
     57 H25         3.0460    0.2480    2.7260 hn        1 MOL      0.319452
     58 H26         3.8960   -1.9560    1.3730 h1        1 MOL     -0.034254
     59 H27         2.4560   -2.5660    2.3250 h1        1 MOL     -0.034254
     60 N6          5.0850   -2.9760    3.4780 n         1 MOL     -0.344120
     61 C19         5.6960   -3.6190    2.2800 c3        1 MOL      0.006600
     62 C20         6.6810   -2.8290    1.3680 c         1 MOL      0.631153
     63 O10         7.3180   -1.8400    1.7760 o         1 MOL     -0.485602
     64 C21         6.4600   -4.8740    2.8040 c3        1 MOL     -0.232364
     65 C22         7.3580   -4.7250    4.0330 c         1 MOL      0.731215
     66 O11         7.4560   -3.6230    4.6000 o         1 MOL     -0.660567
     67 O12         7.9840   -5.8130    4.3270 o         1 MOL     -0.660567
     68 H28         5.6740   -3.0230    4.2940 hn        1 MOL      0.307168
     69 H29         4.8450   -3.9240    1.6610 h1        1 MOL     -0.009521
     70 H30         7.0630   -5.2700    1.9810 hc        1 MOL      0.043449
     71 H31         5.7420   -5.5940    3.2060 hc        1 MOL      0.043449
     72 N7          6.7680   -3.1960    0.0740 n         1 MOL     -0.372392
     73 C23         7.6640   -2.6040   -0.9390 c3        1 MOL     -0.286510
     74 C24         7.0500   -1.2590   -1.4350 c         1 MOL      0.552298
     75 O13         7.7920   -0.2950   -1.5470 o         1 MOL     -0.534523
     76 H32         6.4390   -4.1070   -0.2120 hn        1 MOL      0.238470
     77 H33         7.6680   -3.2930   -1.7730 h1        1 MOL      0.161965
     78 H34         8.7000   -2.4940   -0.6010 h1        1 MOL      0.161965
     79 N8          5.7630   -1.1450   -1.8400 n         1 MOL     -0.494398
     80 C25         5.1340    0.1170   -2.3100 c3        1 MOL      0.023535
     81 C26         5.2880    1.1340   -1.2660 c         1 MOL      0.548545
     82 O14         4.9330    0.9710   -0.1090 o         1 MOL     -0.486704
     83 C27         3.6130    0.0210   -2.6160 c3        1 MOL      0.248756
     84 C28         3.4470   -0.7480   -3.8930 c3        1 MOL     -0.445359
     85 O15         3.0510    1.2800   -2.8930 oh        1 MOL     -0.563573
     86 H35         5.1440   -1.9300   -1.6850 hn        1 MOL      0.254898
     87 H36         5.6080    0.4930   -3.2180 h1        1 MOL      0.091142
     88 H37         3.0510   -0.3540   -1.7700 h1        1 MOL      0.079545
     89 H38         2.3290    1.5370   -2.3190 ho        1 MOL      0.350705
     90 H39         3.9050   -0.2090   -4.7270 hc        1 MOL      0.124154
     91 H40         3.9170   -1.7150   -3.7530 hc        1 MOL      0.124154
     92 H41         2.4180   -0.8900   -4.2230 hc        1 MOL      0.124154
     93 N9          5.8840    2.3190   -1.6290 n         1 MOL     -0.265927
     94 C29         5.9610    3.4650   -0.7300 c3        1 MOL     -0.024593
     95 C30         4.6300    3.8530   -0.1470 c         1 MOL      0.416474
     96 O16         4.6020    4.2840    0.9870 o         1 MOL     -0.503590
     97 C31         6.5850    4.6490   -1.5720 c3        1 MOL      0.191066
     98 C32         7.8900    4.2060   -2.3440 c3        1 MOL      0.088412
     99 C33         6.8190    5.8030   -0.6380 c3        1 MOL     -0.310223
    100 C34         9.1290    3.4830   -1.6970 c3        1 MOL     -0.281236
    101 H42         6.1240    2.5640   -2.5790 hn        1 MOL      0.187077
    102 H43         6.6820    3.1990    0.0420 h1        1 MOL      0.111697
    103 H44         5.9160    5.0580   -2.3330 hc        1 MOL     -0.007061
    104 H45         8.2690    5.1250   -2.7870 hc        1 MOL     -0.034929
    105 H46         7.5140    3.6210   -3.1930 hc        1 MOL     -0.034929
    106 H47         7.1330    6.6510   -1.2510 hc        1 MOL      0.072997
    107 H48         5.8610    6.1220   -0.2050 hc        1 MOL      0.072997
    108 H49         7.4710    5.6010    0.2070 hc        1 MOL      0.072997
    109 H50         8.7480    2.5600   -1.2680 hc        1 MOL      0.085057
    110 H51         9.8490    3.3240   -2.5070 hc        1 MOL      0.085057
    111 H52         9.5360    4.0890   -0.8880 hc        1 MOL      0.085057
    112 N10         3.5020    3.6930   -0.9110 n         1 MOL     -0.274395
    113 C35         2.2340    4.4050   -0.6230 c3        1 MOL      0.049252
    114 C36         1.0870    3.4640   -0.6030 c         1 MOL      0.629427
    115 O17         1.1740    2.4120   -1.2100 o         1 MOL     -0.498652
    116 C37         1.9300    5.5220   -1.6600 c3        1 MOL      0.342867
    117 C38         1.8800    5.0710   -3.0890 c3        1 MOL     -0.421551
    118 O18         3.0300    6.4300   -1.6490 oh        1 MOL     -0.565721
    119 H53         3.5250    3.2950   -1.8390 hn        1 MOL      0.092126
    120 H54         2.2080    4.8670    0.3690 h1        1 MOL      0.045704
    121 H55         1.0660    6.1340   -1.3610 h1        1 MOL     -0.003240
    122 H56         2.9500    6.8980   -0.8230 ho        1 MOL      0.356856
    123 H57         1.1210    4.3490   -3.3930 hc        1 MOL      0.128645
    124 H58         1.7130    5.9700   -3.6960 hc        1 MOL      0.128645
    125 H59         2.8260    4.5680   -3.2740 hc        1 MOL      0.128645
    126 N11        -0.1040    3.8260   -0.1280 n         1 MOL     -0.694880
    127 C39        -1.2030    2.8910    0.0620 c3        1 MOL      0.274125
    128 C40        -2.4120    3.0470   -0.8490 c         1 MOL      0.643816
    129 O19        -2.4750    3.9610   -1.6300 o         1 MOL     -0.599959
    130 C41        -1.6810    2.8650    1.5520 c3        1 MOL      0.149394
    131 C42        -2.4070    4.0530    2.1420 c3        1 MOL     -0.139588
    132 O20        -0.6250    2.6120    2.3860 oh        1 MOL     -0.537671
    133 H60        -0.1780    4.7380    0.3030 hn        1 MOL      0.300814
    134 H61        -0.8140    1.8970   -0.1880 h1        1 MOL     -0.038086
    135 H62        -2.4030    2.0680    1.6810 h1        1 MOL      0.075812
    136 H63        -0.0460    1.9760    1.9630 ho        1 MOL      0.317659
    137 H64        -3.1670    4.4520    1.4710 hc        1 MOL      0.025679
    138 H65        -2.9530    3.7870    3.0430 hc        1 MOL      0.025679
    139 H66        -1.7070    4.8390    2.4430 hc        1 MOL      0.025679
    140 N12        -3.3290    2.0580   -0.8390 n         1 MOL     -0.440987
    141 C43        -4.5920    2.0910   -1.7070 c3        1 MOL     -0.034139
    142 C44        -5.1130    0.7480   -2.1690 c         1 MOL      0.543531
    143 O21        -6.0460    0.7310   -2.9490 o         1 MOL     -0.596678
    144 C45        -5.7680    2.7480   -0.7840 c3        1 MOL     -0.087993
    145 C46        -5.7330    4.1790   -0.3550 c3        1 MOL     -0.002816
    146 C47        -7.0150    4.6250    0.4350 c3        1 MOL     -0.213020
    147 C48        -7.0300    6.1200    0.6600 c3        1 MOL      0.143967
    148 N13        -8.3930    6.5150    1.1260 n4        1 MOL     -0.369839
    149 H67        -3.1590    1.3140   -0.1800 hn        1 MOL      0.171658
    150 H68        -4.5150    2.5840   -2.6830 h1        1 MOL      0.134087
    151 H69        -5.7570    2.1340    0.1180 hc        1 MOL      0.063495
    152 H70        -6.7290    2.6130   -1.2890 hc        1 MOL      0.063495
    153 H71        -5.5090    4.7810   -1.2270 hc        1 MOL      0.033102
    154 H72        -4.9100    4.2450    0.3590 hc        1 MOL      0.033102
    155 H73        -7.1590    4.1030    1.3840 hc        1 MOL      0.080540
    156 H74        -7.8460    4.3420   -0.2160 hc        1 MOL      0.080540
    157 H75        -6.7110    6.6180   -0.2550 hx        1 MOL      0.065989
    158 H76        -6.2360    6.4440    1.3330 hx        1 MOL      0.065989
    159 H77        -9.1300    6.3460    0.4600 hn        1 MOL      0.297925
    160 H78        -8.6890    5.8530    1.8330 hn        1 MOL      0.297925
    161 H79        -8.4660    7.5070    1.3260 hn        1 MOL      0.297925
    162 N14        -4.5980   -0.4500   -1.6800 n         1 MOL     -0.298087
    163 C49        -4.9960   -1.7880   -2.0930 c3        1 MOL      0.023024
    164 C50        -6.4460   -2.0560   -1.8920 c         1 MOL      0.294086
    165 O22        -7.0160   -1.8880   -0.8000 o         1 MOL     -0.471365
    166 C51        -3.9930   -2.7490   -1.4720 c3        1 MOL     -0.309477
    167 C52        -4.3500   -4.2430   -1.8620 c3        1 MOL     -0.620612
    168 C53        -4.1380   -4.5440   -3.3920 c         1 MOL      0.903681
    169 O23        -3.0460   -4.5350   -3.9010 o         1 MOL     -0.801712
    170 O24        -5.1500   -4.7910   -4.0730 o         1 MOL     -0.801712
    171 H80        -3.7600   -0.4470   -1.1050 hn        1 MOL      0.189182
    172 H81        -4.7510   -1.7780   -3.1540 h1        1 MOL      0.084501
    173 H82        -3.9700   -2.6230   -0.3830 hc        1 MOL      0.174154
    174 H83        -3.0320   -2.3470   -1.7860 hc        1 MOL      0.174154
    175 H84        -5.3910   -4.4030   -1.6060 hc        1 MOL      0.217532
    176 H85        -3.7130   -4.8940   -1.2570 hc        1 MOL      0.217532
    177 N15        -6.9870   -2.5880   -3.0080 n         1 MOL     -0.054713
    178 C54        -8.4570   -2.9460   -3.0000 c3        1 MOL     -0.049150
    179 H86        -8.5670   -4.0260   -3.0970 h1        1 MOL      0.047643
    180 H87        -8.9060   -2.6180   -2.0620 h1        1 MOL      0.047643
    181 H88        -8.9560   -2.4530   -3.8340 h1        1 MOL      0.047643
    182 H89        -6.4880   -2.5020   -3.8800 hn        1 MOL      0.218296
    183 Ca1        -0.7790   -3.3630   -4.3640 Ca        1 MOL      1.701124
    184 O25        -2.7970   -2.2620   -6.0440 oh        1 MOL     -0.841458
    185 H90        -2.9000   -2.3990   -6.9850 ho        1 MOL      0.424410
    186 H91        -3.6660   -2.0340   -5.7380 ho        1 MOL      0.424410
    187 O26         1.8400   -4.1590   -4.6130 oh        1 MOL     -0.841458
    188 H92         2.5570   -4.0560   -5.2310 ho        1 MOL      0.424410
    189 H93         2.1690   -4.7930   -3.9710 ho        1 MOL      0.424410
    190 O27         0.1470   -2.1100   -6.3510 oh        1 MOL     -0.841458
    191 H94        -0.1010   -1.3720   -6.8930 ho        1 MOL      0.424410
    192 H95         0.3190   -2.8230   -6.9710 ho        1 MOL      0.424410
@<TRIPOS>BOND
     1    1    2 1   
     2    1    4 1   
     3    1    5 1   
     4    1    6 1   
     5    2    3 2   
     6    2    7 1   
     7    7    8 1   
     8    7   15 1   
     9    8    9 1   
    10    8   11 1   
    11    8   16 1   
    12    9   10 2   
    13    9   19 1   
    14   11   12 1   
    15   11   17 1   
    16   11   18 1   
    17   12   13 1   
    18   12   14 1   
    19   19   20 1   
    20   19   28 1   
    21   20   21 1   
    22   20   23 1   
    23   20   29 1   
    24   21   22 2   
    25   21   41 1   
    26   23   24 1   
    27   23   30 1   
    28   23   31 1   
    29   24   25 1   
    30   24   32 1   
    31   24   33 1   
    32   25   26 1   
    33   25   34 1   
    34   25   35 1   
    35   26   27 1   
    36   26   36 1   
    37   26   37 1   
    38   27   38 1   
    39   27   39 1   
    40   27   40 1   
    41   41   42 1   
    42   41   49 1   
    43   42   43 1   
    44   42   45 1   
    45   42   50 1   
    46   43   44 2   
    47   43   53 1   
    48   45   46 1   
    49   45   51 1   
    50   45   52 1   
    51   46   47 1   
    52   46   48 1   
    53   53   54 1   
    54   53   57 1   
    55   54   55 1   
    56   54   58 1   
    57   54   59 1   
    58   55   56 2   
    59   55   60 1   
    60   60   61 1   
    61   60   68 1   
    62   61   62 1   
    63   61   64 1   
    64   61   69 1   
    65   62   63 2   
    66   62   72 1   
    67   64   65 1   
    68   64   70 1   
    69   64   71 1   
    70   65   66 1   
    71   65   67 1   
    72   72   73 1   
    73   72   76 1   
    74   73   74 1   
    75   73   77 1   
    76   73   78 1   
    77   74   75 2   
    78   74   79 1   
    79   79   80 1   
    80   79   86 1   
    81   80   81 1   
    82   80   83 1   
    83   80   87 1   
    84   81   82 2   
    85   81   93 1   
    86   83   84 1   
    87   83   85 1   
    88   83   88 1   
    89   84   90 1   
    90   84   91 1   
    91   84   92 1   
    92   85   89 1   
    93   93   94 1   
    94   93  101 1   
    95   94   95 1   
    96   94   97 1   
    97   94  102 1   
    98   95   96 2   
    99   95  112 1   
   100   97   98 1   
   101   97   99 1   
   102   97  103 1   
   103   98  100 1   
   104   98  104 1   
   105   98  105 1   
   106   99  106 1   
   107   99  107 1   
   108   99  108 1   
   109  100  109 1   
   110  100  110 1   
   111  100  111 1   
   112  112  113 1   
   113  112  119 1   
   114  113  114 1   
   115  113  116 1   
   116  113  120 1   
   117  114  115 2   
   118  114  126 1   
   119  116  117 1   
   120  116  118 1   
   121  116  121 1   
   122  117  123 1   
   123  117  124 1   
   124  117  125 1   
   125  118  122 1   
   126  126  127 1   
   127  126  133 1   
   128  127  128 1   
   129  127  130 1   
   130  127  134 1   
   131  128  129 2   
   132  128  140 1   
   133  130  131 1   
   134  130  132 1   
   135  130  135 1   
   136  131  137 1   
   137  131  138 1   
   138  131  139 1   
   139  132  136 1   
   140  140  141 1   
   141  140  149 1   
   142  141  142 1   
   143  141  144 1   
   144  141  150 1   
   145  142  143 2   
   146  142  162 1   
   147  144  145 1   
   148  144  151 1   
   149  144  152 1   
   150  145  146 1   
   151  145  153 1   
   152  145  154 1   
   153  146  147 1   
   154  146  155 1   
   155  146  156 1   
   156  147  148 1   
   157  147  157 1   
   158  147  158 1   
   159  148  159 1   
   160  148  160 1   
   161  148  161 1   
   162  162  163 1   
   163  162  171 1   
   164  163  164 1   
   165  163  166 1   
   166  163  172 1   
   167  164  165 2   
   168  164  177 1   
   169  166  167 1   
   170  166  173 1   
   171  166  174 1   
   172  167  168 1   
   173  167  175 1   
   174  167  176 1   
   175  168  169 1   
   176  168  170 1   
   177  177  178 1   
   178  177  182 1   
   179  178  179 1   
   180  178  180 1   
   181  178  181 1   
   182  184  185 1   
   183  184  186 1   
   184  187  188 1   
   185  187  189 1   
   186  190  191 1   
   187  190  192 1   
@<TRIPOS>SUBSTRUCTURE
     1 MOL         1 TEMP              0 ****  ****    0 ROOT
