@<TRIPOS>MOLECULE
MOL
  188   182     1     0     0
SMALL
resp


@<TRIPOS>ATOM
      1 C1          4.8750    0.0250    5.6400 c3        1 MOL     -0.376315
      2 C2          3.9100    0.1420    4.4460 c         1 MOL      0.726507
      3 O1          2.7890    0.4790    4.5900 o         1 MOL     -0.576986
      4 H1          5.3670   -0.9480    5.6150 hc        1 MOL      0.094549
      5 H2          5.6260    0.8130    5.5810 hc        1 MOL      0.094549
      6 H3          4.3160    0.1250    6.5710 hc        1 MOL      0.094549
      7 N1          4.4220   -0.0200    3.2430 n         1 MOL     -0.568457
      8 C3          3.6810   -0.0880    1.9910 c3        1 MOL      0.009728
      9 C4          4.0400   -1.3800    1.2740 c         1 MOL      0.607382
     10 O2          3.2240   -1.8870    0.4930 o         1 MOL     -0.567405
     11 C5          4.1790    1.0660    1.1500 c3        1 MOL     -0.165144
     12 C6          5.6870    1.3180    1.1790 c         1 MOL      0.787903
     13 O3          6.0910    2.2030    1.9470 o         1 MOL     -0.701824
     14 O4          6.4570    0.7450    0.4160 o         1 MOL     -0.701824
     15 H4          5.4180   -0.1110    3.2090 hn        1 MOL      0.280447
     16 H5          2.6240    0.0400    2.1890 h1        1 MOL      0.103386
     17 H6          3.7260    1.9750    1.5540 hc        1 MOL      0.062781
     18 H7          3.8690    0.9100    0.1160 hc        1 MOL      0.062781
     19 N2          5.1510   -2.0630    1.4710 n         1 MOL     -0.592009
     20 C7          5.5890   -3.3950    1.0440 c3        1 MOL      0.433546
     21 C8          6.0690   -3.3730   -0.3830 c         1 MOL      0.289989
     22 O5          7.1850   -3.7450   -0.6930 o         1 MOL     -0.540705
     23 C9          6.6810   -3.9060    2.0330 c3        1 MOL     -0.235207
     24 C10         6.0680   -4.4030    3.4090 c3        1 MOL      0.188090
     25 C11         7.0860   -4.9120    4.4530 c3        1 MOL     -0.087303
     26 C12         7.4990   -6.3110    4.1060 c3        1 MOL      0.089430
     27 N3          8.2680   -6.9940    5.2780 n4        1 MOL     -0.380920
     28 H8          5.7760   -1.6710    2.1690 hn        1 MOL      0.283454
     29 H9          4.7300   -4.0680    1.1380 h1        1 MOL     -0.067675
     30 H10         7.5380   -3.2620    2.2160 hc        1 MOL      0.077900
     31 H11         7.0580   -4.8270    1.5800 hc        1 MOL      0.077900
     32 H12         5.3470   -5.1910    3.1960 hc        1 MOL     -0.050477
     33 H13         5.5460   -3.5950    3.9200 hc        1 MOL     -0.050477
     34 H14         6.6890   -4.9700    5.4650 hc        1 MOL      0.037284
     35 H15         7.9560   -4.2440    4.4530 hc        1 MOL      0.037284
     36 H16         8.1170   -6.3610    3.2120 hx        1 MOL      0.074731
     37 H17         6.5300   -6.7590    3.8580 hx        1 MOL      0.074731
     38 H18         8.3190   -7.9860    5.1070 hn        1 MOL      0.317042
     39 H19         9.1900   -6.6070    5.4320 hn        1 MOL      0.317042
     40 H20         7.8380   -6.8720    6.1800 hn        1 MOL      0.317042
     41 N4          5.2570   -2.7790   -1.2710 n         1 MOL     -0.033848
     42 C13         5.5400   -2.6730   -2.6680 c3        1 MOL     -0.103214
     43 C14         5.2390   -1.2790   -3.2990 c         1 MOL      0.495502
     44 O6          4.8440   -1.0910   -4.4400 o         1 MOL     -0.498642
     45 C15         4.6630   -3.7600   -3.3450 c3        1 MOL     -0.151148
     46 C16         3.1280   -3.5730   -3.2420 c         1 MOL      0.675413
     47 O7          2.6510   -2.7800   -2.4430 o         1 MOL     -0.696302
     48 O8          2.4680   -4.2940   -4.0530 o         1 MOL     -0.696302
     49 H21         4.3250   -2.6000   -0.9420 hn        1 MOL      0.140591
     50 H22         6.5830   -2.9030   -2.9090 h1        1 MOL      0.108598
     51 H23         4.7970   -4.7330   -2.8880 hc        1 MOL      0.047861
     52 H24         4.9390   -3.8890   -4.3930 hc        1 MOL      0.047861
     53 N5          5.2740   -0.2320   -2.4700 n         1 MOL     -0.322549
     54 C17         4.9570    1.0990   -2.9350 c3        1 MOL      0.061954
     55 C18         6.0980    1.8020   -3.6750 c         1 MOL      0.563101
     56 O9          6.9930    1.1210   -4.1730 o         1 MOL     -0.511666
     57 H25         5.7610   -0.2030   -1.5840 hn        1 MOL      0.220309
     58 H26         4.6800    1.6960   -2.0590 h1        1 MOL      0.048307
     59 H27         4.1020    1.0620   -3.6070 h1        1 MOL      0.048307
     60 N6          5.9910    3.1790   -3.8820 n         1 MOL     -0.553854
     61 C19         4.9260    3.9480   -3.3090 c3        1 MOL      0.148090
     62 C20         5.3150    4.2930   -1.8490 c         1 MOL      0.506715
     63 O10         6.4750    4.6940   -1.6320 o         1 MOL     -0.523055
     64 C21         4.7000    5.1070   -4.2880 c3        1 MOL     -0.165653
     65 C22         3.3930    5.8830   -4.0770 c         1 MOL      0.707943
     66 N7          3.3100    6.8990   -3.2520 n         1 MOL     -0.793734
     67 O11         2.5070    5.5600   -4.7870 o         1 MOL     -0.573998
     68 H28         6.7190    3.6910   -4.3540 hn        1 MOL      0.319485
     69 H29         4.0150    3.3460   -3.3900 h1        1 MOL      0.034491
     70 H30         4.7160    4.7390   -5.3080 hc        1 MOL      0.050441
     71 H31         5.4420    5.8750   -4.0780 hc        1 MOL      0.050441
     72 H32         4.0940    7.2010   -2.6950 hn        1 MOL      0.361159
     73 H33         2.4240    7.3880   -3.1540 hn        1 MOL      0.361159
     74 N8          4.4130    4.2700   -0.9030 n         1 MOL     -0.405704
     75 C23         3.0630    3.7660   -0.9250 c3        1 MOL     -0.205655
     76 C24         2.0610    4.4140    0.0810 c         1 MOL      0.709949
     77 O12         2.4510    5.2480    0.8750 o         1 MOL     -0.524674
     78 H34         4.7220    4.7290   -0.0520 hn        1 MOL      0.309640
     79 H35         3.0420    2.6840   -0.7500 h1        1 MOL      0.036725
     80 H36         2.6460    3.8860   -1.9230 h1        1 MOL      0.036725
     81 N9          0.8140    3.9530   -0.0360 n         1 MOL     -0.661198
     82 C25        -0.2840    4.2620    0.9260 c3        1 MOL      0.202588
     83 C26        -1.2690    3.0810    0.9540 c         1 MOL      0.452657
     84 O13        -1.1240    2.1560    0.1870 o         1 MOL     -0.468993
     85 C27        -0.9890    5.5850    0.5810 c3        1 MOL     -0.242377
     86 C28        -1.9480    6.1120    1.6660 ca        1 MOL      0.113811
     87 C29        -3.1940    6.6390    1.2730 ca        1 MOL     -0.191188
     88 C30        -1.5480    6.1110    3.0550 ca        1 MOL     -0.191188
     89 C31        -4.0730    7.1650    2.2670 ca        1 MOL     -0.192345
     90 C32        -2.4840    6.5550    4.0020 ca        1 MOL     -0.192345
     91 C33        -3.7340    7.0810    3.6440 ca        1 MOL      0.246833
     92 O14        -4.6180    7.5170    4.6420 oh        1 MOL     -0.460225
     93 H37         0.5730    3.3420   -0.7920 hn        1 MOL      0.356541
     94 H38         0.1500    4.2770    1.9230 h1        1 MOL      0.064088
     95 H39        -1.4920    5.4670   -0.3820 hc        1 MOL      0.113583
     96 H40        -0.1590    6.2800    0.4620 hc        1 MOL      0.113583
     97 H41        -3.4360    6.5580    0.2210 ha        1 MOL      0.152191
     98 H42        -0.6040    5.7240    3.4140 ha        1 MOL      0.152191
     99 H43        -5.0600    7.5010    1.9840 ha        1 MOL      0.149555
    100 H44        -2.1880    6.4740    5.0380 ha        1 MOL      0.149555
    101 H45        -4.0890    7.5260    5.4460 ho        1 MOL      0.345599
    102 N10        -2.3510    3.2220    1.7890 n         1 MOL     -0.359799
    103 C34        -3.5570    2.3540    1.7490 c3        1 MOL      0.045128
    104 C35        -4.5500    2.7480    0.6610 c         1 MOL      0.609970
    105 O15        -4.7220    3.9200    0.2280 o         1 MOL     -0.504549
    106 C36        -4.3280    2.3060    3.1220 c3        1 MOL      0.214756
    107 C37        -3.5800    1.2730    3.9910 c3        1 MOL      0.046031
    108 C38        -4.3400    3.6360    3.8480 c3        1 MOL     -0.182467
    109 C39        -3.5980   -0.1490    3.5560 c3        1 MOL     -0.098262
    110 H46        -2.4520    4.0650    2.3400 hn        1 MOL      0.127402
    111 H47        -3.1730    1.3620    1.4910 h1        1 MOL      0.020005
    112 H48        -5.3670    1.9800    3.0700 hc        1 MOL     -0.009022
    113 H49        -3.9540    1.3830    5.0090 hc        1 MOL     -0.008714
    114 H50        -2.5180    1.5160    4.0780 hc        1 MOL     -0.008714
    115 H51        -3.3240    3.9720    4.0460 hc        1 MOL      0.040130
    116 H52        -4.8050    4.3150    3.1360 hc        1 MOL      0.040130
    117 H53        -4.8680    3.5210    4.7920 hc        1 MOL      0.040130
    118 H54        -2.9890   -0.2240    2.6490 hc        1 MOL      0.008021
    119 H55        -3.0670   -0.7610    4.2910 hc        1 MOL      0.008021
    120 H56        -4.6070   -0.5160    3.3300 hc        1 MOL      0.008021
    121 N11        -5.1460    1.6330    0.1260 n         1 MOL     -0.553926
    122 C40        -6.2890    1.7120   -0.8450 c3        1 MOL     -0.027062
    123 C41        -6.5480    0.3550   -1.5150 c         1 MOL      0.693102
    124 O16        -6.1070   -0.6870   -1.0520 o         1 MOL     -0.498124
    125 C42        -7.5300    2.2300   -0.1780 c3        1 MOL      0.016102
    126 O17        -7.8360    1.3610    0.9030 oh        1 MOL     -0.566733
    127 H57        -4.8540    0.7500    0.5080 hn        1 MOL      0.323632
    128 H58        -5.9420    2.3590   -1.6520 h1        1 MOL      0.077213
    129 H59        -8.3240    2.2260   -0.9200 h1        1 MOL      0.058897
    130 H60        -7.3980    3.2520    0.1730 h1        1 MOL      0.058897
    131 H61        -8.5740    1.8260    1.2990 ho        1 MOL      0.407108
    132 N12        -7.1100    0.4500   -2.6680 n         1 MOL     -0.417273
    133 C43        -7.1960   -0.6080   -3.6600 c3        1 MOL     -0.010088
    134 C44        -7.8840   -1.9410   -3.1960 c         1 MOL      0.374682
    135 O18        -7.7410   -3.0070   -3.8040 o         1 MOL     -0.456653
    136 C45        -5.7750   -0.8410   -4.2400 c3        1 MOL     -0.373222
    137 H62        -7.5870    1.3050   -2.8970 hn        1 MOL      0.275422
    138 H63        -7.7870   -0.1390   -4.4570 h1        1 MOL      0.114658
    139 H64        -5.1570   -1.4320   -3.5690 hc        1 MOL      0.138419
    140 H65        -5.8430   -1.4820   -5.1170 hc        1 MOL      0.138419
    141 H66        -5.2850    0.1030   -4.4750 hc        1 MOL      0.138419
    142 N13        -8.5980   -1.9330   -2.1050 n         1 MOL     -0.318130
    143 C46        -9.1300   -3.0470   -1.3140 c3        1 MOL      0.241211
    144 C47        -7.9720   -4.0330   -0.9390 c         1 MOL      0.297353
    145 O19        -8.1930   -5.2510   -0.8000 o         1 MOL     -0.468651
    146 C48       -10.3100   -3.7070   -2.0770 c3        1 MOL     -0.356770
    147 H67        -8.7240   -1.0070   -1.7260 hn        1 MOL      0.188374
    148 H68        -9.5240   -2.7030   -0.3580 h1        1 MOL      0.024055
    149 H69       -10.9310   -4.3350   -1.4300 hc        1 MOL      0.103855
    150 H70       -10.8490   -2.8550   -2.4890 hc        1 MOL      0.103855
    151 H71        -9.8980   -4.3070   -2.8820 hc        1 MOL      0.103855
    152 N14        -6.7660   -3.4520   -0.7620 n         1 MOL     -0.019205
    153 C49        -5.6060   -4.2870   -0.2550 c3        1 MOL     -0.369543
    154 C50        -5.7570   -4.8890    1.1620 c         1 MOL      0.581173
    155 O20        -5.4050   -6.0360    1.4050 o         1 MOL     -0.540470
    156 C51        -4.3390   -3.3760   -0.3260 c3        1 MOL      0.312239
    157 C52        -3.1470   -4.3390   -0.0390 c3        1 MOL     -0.090222
    158 C53        -1.8710   -3.6620   -0.3740 c         1 MOL      0.826738
    159 O21        -0.8490   -4.2920   -0.5170 o         1 MOL     -0.845589
    160 O22        -1.8040   -2.4210   -0.6020 o         1 MOL     -0.845589
    161 H72        -6.7410   -2.4340   -0.7490 hn        1 MOL      0.069991
    162 H73        -5.4520   -5.1110   -0.9440 h1        1 MOL      0.187145
    163 H74        -4.3990   -2.5790    0.4040 hc        1 MOL     -0.057556
    164 H75        -4.2070   -2.9780   -1.3300 hc        1 MOL     -0.057556
    165 H76        -3.2920   -5.2760   -0.5820 hc        1 MOL      0.012078
    166 H77        -3.0770   -4.4250    1.0450 hc        1 MOL      0.012078
    167 N15        -6.3830   -4.1590    2.0490 n         1 MOL     -0.257986
    168 C54        -6.8970   -4.7320    3.2760 c3        1 MOL     -0.447378
    169 H78        -6.0870   -5.2250    3.8140 h1        1 MOL      0.164497
    170 H79        -7.3180   -3.9430    3.8980 h1        1 MOL      0.164497
    171 H80        -7.6710   -5.4610    3.0400 h1        1 MOL      0.164497
    172 H81        -6.7940   -3.3120    1.6920 hn        1 MOL      0.243100
    173 Ca1         0.7760   -2.2970   -0.6400 Ca        1 MOL      1.765472
    174 O23         0.9330   -3.4330    1.8430 oh        1 MOL     -0.815686
    175 H82         1.4350   -3.4140    2.6550 ho        1 MOL      0.401792
    176 H83         0.3540   -4.1840    1.9260 ho        1 MOL      0.401792
    177 O24         2.7670   -4.5540   -0.2220 oh        1 MOL     -0.815686
    178 H84         2.3210   -4.8780    0.5600 ho        1 MOL      0.401792
    179 H85         3.2790   -5.3000   -0.5400 ho        1 MOL      0.401792
    180 O25        -0.2250   -1.6980   -3.4280 oh        1 MOL     -0.815686
    181 H86        -0.9500   -1.4800   -4.0290 ho        1 MOL      0.401792
    182 H87         0.0200   -2.5840   -3.6710 ho        1 MOL      0.401792
    183 O26         1.8640   -0.1360   -1.6780 oh        1 MOL     -0.815686
    184 H88         2.6040   -0.1000   -2.2890 ho        1 MOL      0.401792
    185 H89         1.2960    0.5860   -1.9370 ho        1 MOL      0.401792
    186 O27         0.2330   -0.0440    0.7710 oh        1 MOL     -0.815686
    187 H90         0.3070    0.2030    1.6910 ho        1 MOL      0.401792
    188 H91        -0.2380    0.6800    0.3640 ho        1 MOL      0.401792
@<TRIPOS>BOND
     1    1    2 1   
     2    1    4 1   
     3    1    5 1   
     4    1    6 1   
     5    2    3 2   
     6    2    7 1   
     7    7    8 1   
     8    7   15 1   
     9    8    9 1   
    10    8   11 1   
    11    8   16 1   
    12    9   10 2   
    13    9   19 1   
    14   11   12 1   
    15   11   17 1   
    16   11   18 1   
    17   12   13 1   
    18   12   14 1   
    19   19   20 1   
    20   19   28 1   
    21   20   21 1   
    22   20   23 1   
    23   20   29 1   
    24   21   22 2   
    25   21   41 1   
    26   23   24 1   
    27   23   30 1   
    28   23   31 1   
    29   24   25 1   
    30   24   32 1   
    31   24   33 1   
    32   25   26 1   
    33   25   34 1   
    34   25   35 1   
    35   26   27 1   
    36   26   36 1   
    37   26   37 1   
    38   27   38 1   
    39   27   39 1   
    40   27   40 1   
    41   41   42 1   
    42   41   49 1   
    43   42   43 1   
    44   42   45 1   
    45   42   50 1   
    46   43   44 2   
    47   43   53 1   
    48   45   46 1   
    49   45   51 1   
    50   45   52 1   
    51   46   47 1   
    52   46   48 1   
    53   53   54 1   
    54   53   57 1   
    55   54   55 1   
    56   54   58 1   
    57   54   59 1   
    58   55   56 2   
    59   55   60 1   
    60   60   61 1   
    61   60   68 1   
    62   61   62 1   
    63   61   64 1   
    64   61   69 1   
    65   62   63 2   
    66   62   74 1   
    67   64   65 1   
    68   64   70 1   
    69   64   71 1   
    70   65   66 1   
    71   65   67 2   
    72   66   72 1   
    73   66   73 1   
    74   74   75 1   
    75   74   78 1   
    76   75   76 1   
    77   75   79 1   
    78   75   80 1   
    79   76   77 2   
    80   76   81 1   
    81   81   82 1   
    82   81   93 1   
    83   82   83 1   
    84   82   85 1   
    85   82   94 1   
    86   83   84 2   
    87   83  102 1   
    88   85   86 1   
    89   85   95 1   
    90   85   96 1   
    91   86   87 ar  
    92   86   88 ar  
    93   87   89 ar  
    94   87   97 1   
    95   88   90 ar  
    96   88   98 1   
    97   89   91 ar  
    98   89   99 1   
    99   90   91 ar  
   100   90  100 1   
   101   91   92 1   
   102   92  101 1   
   103  102  103 1   
   104  102  110 1   
   105  103  104 1   
   106  103  106 1   
   107  103  111 1   
   108  104  105 2   
   109  104  121 1   
   110  106  107 1   
   111  106  108 1   
   112  106  112 1   
   113  107  109 1   
   114  107  113 1   
   115  107  114 1   
   116  108  115 1   
   117  108  116 1   
   118  108  117 1   
   119  109  118 1   
   120  109  119 1   
   121  109  120 1   
   122  121  122 1   
   123  121  127 1   
   124  122  123 1   
   125  122  125 1   
   126  122  128 1   
   127  123  124 2   
   128  123  132 1   
   129  125  126 1   
   130  125  129 1   
   131  125  130 1   
   132  126  131 1   
   133  132  133 1   
   134  132  137 1   
   135  133  134 1   
   136  133  136 1   
   137  133  138 1   
   138  134  135 2   
   139  134  142 1   
   140  136  139 1   
   141  136  140 1   
   142  136  141 1   
   143  142  143 1   
   144  142  147 1   
   145  143  144 1   
   146  143  146 1   
   147  143  148 1   
   148  144  145 2   
   149  144  152 1   
   150  146  149 1   
   151  146  150 1   
   152  146  151 1   
   153  152  153 1   
   154  152  161 1   
   155  153  154 1   
   156  153  156 1   
   157  153  162 1   
   158  154  155 2   
   159  154  167 1   
   160  156  157 1   
   161  156  163 1   
   162  156  164 1   
   163  157  158 1   
   164  157  165 1   
   165  157  166 1   
   166  158  159 1   
   167  158  160 1   
   168  167  168 1   
   169  167  172 1   
   170  168  169 1   
   171  168  170 1   
   172  168  171 1   
   173  174  175 1   
   174  174  176 1   
   175  177  178 1   
   176  177  179 1   
   177  180  181 1   
   178  180  182 1   
   179  183  184 1   
   180  183  185 1   
   181  186  187 1   
   182  186  188 1   
@<TRIPOS>SUBSTRUCTURE
     1 MOL         1 TEMP              0 ****  ****    0 ROOT
