@<TRIPOS>MOLECULE
MOL
  188   182     1     0     0
SMALL
resp


@<TRIPOS>ATOM
      1 C1          6.9430   -1.4030    3.3780 c3        1 MOL     -0.456368
      2 C2          7.1920   -0.4120    2.1810 c         1 MOL      0.600415
      3 O1          6.3650   -0.2920    1.3270 o         1 MOL     -0.489984
      4 H1          7.9010   -1.7310    3.7820 hc        1 MOL      0.111115
      5 H2          6.3750   -0.8970    4.1590 hc        1 MOL      0.111115
      6 H3          6.3830   -2.2680    3.0240 hc        1 MOL      0.111115
      7 N1          8.3600    0.1800    2.1160 n         1 MOL     -0.467623
      8 C3          8.7670    1.0210    0.9720 c3        1 MOL      0.141411
      9 C4          8.4130    0.4290   -0.4500 c         1 MOL      0.395877
     10 O2          8.0420    1.0990   -1.4030 o         1 MOL     -0.410547
     11 C5          8.2600    2.4930    1.1420 c3        1 MOL     -0.344045
     12 C6          9.0230    3.4720    0.1800 c         1 MOL      0.692118
     13 O3          8.4260    4.4320   -0.4330 o         1 MOL     -0.644332
     14 O4         10.2670    3.2700    0.1300 o         1 MOL     -0.644332
     15 H4          9.0190   -0.0830    2.8320 hn        1 MOL      0.296614
     16 H5          9.8510    0.9990    0.9790 h1        1 MOL      0.033246
     17 H6          8.4810    2.9160    2.1240 hc        1 MOL      0.103516
     18 H7          7.1750    2.5840    1.0730 hc        1 MOL      0.103516
     19 N2          8.5030   -0.9220   -0.5420 n         1 MOL     -0.232848
     20 C7          8.3120   -1.8300   -1.7180 c3        1 MOL     -0.241629
     21 C8          6.8840   -1.8930   -2.1900 c         1 MOL      0.663602
     22 O5          6.6380   -2.5680   -3.1640 o         1 MOL     -0.606003
     23 C9          8.9720   -3.1610   -1.4170 c3        1 MOL      0.094542
     24 C10         8.2630   -4.1020   -0.3690 c3        1 MOL      0.061205
     25 C11         9.0940   -5.3640   -0.1530 c3        1 MOL     -0.422057
     26 C12        10.5420   -5.3650    0.3100 c3        1 MOL     -0.038670
     27 N3         10.5890   -5.3060    1.7960 n4        1 MOL     -0.152159
     28 H8          8.9270   -1.3730    0.2620 hn        1 MOL      0.148462
     29 H9          8.8180   -1.3870   -2.5730 h1        1 MOL      0.154714
     30 H10         9.9630   -2.8740   -1.0670 hc        1 MOL      0.017272
     31 H11         9.1900   -3.8130   -2.2540 hc        1 MOL      0.017272
     32 H12         7.3010   -4.4010   -0.7850 hc        1 MOL      0.028506
     33 H13         8.1270   -3.5760    0.5720 hc        1 MOL      0.028506
     34 H14         9.0450   -5.8290   -1.1280 hc        1 MOL      0.156451
     35 H15         8.4570   -5.9510    0.5170 hc        1 MOL      0.156451
     36 H16        11.0490   -4.4980   -0.1150 hx        1 MOL      0.123585
     37 H17        11.0360   -6.2570   -0.0690 hx        1 MOL      0.123585
     38 H18        11.4480   -4.9370    2.1830 hn        1 MOL      0.202641
     39 H19         9.8330   -4.7800    2.1850 hn        1 MOL      0.202641
     40 H20        10.5070   -6.2510    2.1420 hn        1 MOL      0.202641
     41 N4          5.9830   -1.3350   -1.4240 n         1 MOL     -0.402414
     42 C13         4.6080   -1.2010   -1.7740 c3        1 MOL      0.008883
     43 C14         4.4110    0.1030   -2.6340 c         1 MOL      0.562693
     44 O6          5.0050    1.1600   -2.4790 o         1 MOL     -0.416193
     45 C15         3.8240   -1.2100   -0.4360 c3        1 MOL     -0.053042
     46 C16         2.3370   -1.1460   -0.7590 c         1 MOL      0.549630
     47 O7          1.7790   -0.1520   -1.2590 o         1 MOL     -0.688840
     48 O8          1.6590   -2.1800   -0.5000 o         1 MOL     -0.688840
     49 H21         6.2710   -0.9330   -0.5450 hn        1 MOL      0.188409
     50 H22         4.2800   -2.1000   -2.2860 h1        1 MOL      0.070249
     51 H23         4.0040   -0.2170   -0.0250 hc        1 MOL      0.034354
     52 H24         4.1800   -1.9850    0.2320 hc        1 MOL      0.034354
     53 N5          3.5190   -0.0080   -3.6560 n         1 MOL     -0.351900
     54 C17         3.1970    1.0830   -4.6490 c3        1 MOL     -0.114611
     55 C18         2.7060    2.4030   -4.0510 c         1 MOL      0.492957
     56 O9          3.1340    3.4360   -4.4900 o         1 MOL     -0.501422
     57 H25         3.0590   -0.8950   -3.7630 hn        1 MOL      0.160790
     58 H26         2.4010    0.7220   -5.2920 h1        1 MOL      0.095350
     59 H27         4.0960    1.2490   -5.2400 h1        1 MOL      0.095350
     60 N6          1.8350    2.3110   -3.0520 n         1 MOL     -0.289770
     61 C19         1.1620    3.4950   -2.3980 c3        1 MOL     -0.155081
     62 C20         2.0760    4.0720   -1.3300 c         1 MOL      0.446891
     63 O10         1.6230    5.0410   -0.6050 o         1 MOL     -0.527680
     64 C21        -0.2170    3.1820   -1.8540 c3        1 MOL     -0.152555
     65 C22        -1.1450    2.2560   -2.7090 c         1 MOL      0.585800
     66 N7         -2.1600    2.7350   -3.3780 n         1 MOL     -0.718538
     67 O11        -1.0240    1.0460   -2.6420 o         1 MOL     -0.566584
     68 H28         1.5890    1.3990   -2.6730 hn        1 MOL      0.246786
     69 H29         1.0480    4.2080   -3.2090 h1        1 MOL      0.120156
     70 H30        -0.7580    4.1220   -1.7580 hc        1 MOL      0.131418
     71 H31        -0.0240    2.6760   -0.9050 hc        1 MOL      0.131418
     72 H32        -2.2050    3.7200   -3.5840 hn        1 MOL      0.360905
     73 H33        -2.6060    2.1230   -4.0410 hn        1 MOL      0.360905
     74 N8          3.1330    3.3450   -0.9310 n         1 MOL     -0.182550
     75 C23         3.7900    3.4070    0.4010 c3        1 MOL     -0.137812
     76 C24         3.0330    2.5570    1.4450 c         1 MOL      0.458185
     77 O12         3.2950    2.7200    2.6880 o         1 MOL     -0.544384
     78 H34         3.5800    2.7670   -1.6260 hn        1 MOL      0.209234
     79 H35         3.8340    4.4460    0.7330 h1        1 MOL      0.135044
     80 H36         4.8400    3.1280    0.2910 h1        1 MOL      0.135044
     81 N9          2.0990    1.6640    1.1140 n         1 MOL     -0.163427
     82 C25         1.2070    1.0600    2.1210 c3        1 MOL     -0.062681
     83 C26        -0.2550    0.6970    1.6440 c         1 MOL      0.552848
     84 O13        -0.4950    0.1990    0.5320 o         1 MOL     -0.474544
     85 C27         1.9350   -0.1430    2.7920 c3        1 MOL     -0.215569
     86 C28         1.0970   -0.9870    3.7500 ca        1 MOL      0.219109
     87 C29         0.7970   -0.4440    4.9710 ca        1 MOL     -0.274705
     88 C30         0.8360   -2.3550    3.4480 ca        1 MOL     -0.274705
     89 C31         0.4480   -1.3220    5.9800 ca        1 MOL     -0.202338
     90 C32         0.4060   -3.1450    4.4790 ca        1 MOL     -0.202338
     91 C33         0.1860   -2.7330    5.7910 ca        1 MOL      0.276783
     92 O14        -0.1500   -3.6160    6.7470 oh        1 MOL     -0.435677
     93 H37         1.9300    1.2610    0.2020 hn        1 MOL      0.122604
     94 H38         1.0950    1.7570    2.9470 h1        1 MOL      0.071438
     95 H39         2.7900    0.3290    3.2850 hc        1 MOL      0.132668
     96 H40         2.3610   -0.7930    2.0250 hc        1 MOL      0.132668
     97 H41         0.9810    0.5790    5.2580 ha        1 MOL      0.177669
     98 H42         0.9560   -2.8010    2.4740 ha        1 MOL      0.177669
     99 H43         0.2320   -0.9500    6.9670 ha        1 MOL      0.126456
    100 H44         0.2700   -4.1950    4.2420 ha        1 MOL      0.126456
    101 H45        -0.0110   -4.4590    6.3080 ho        1 MOL      0.342338
    102 N10        -1.2580    1.0000    2.4640 n         1 MOL     -0.577016
    103 C34        -2.6460    0.5850    2.2400 c3        1 MOL      0.072917
    104 C35        -3.2790    1.5430    1.2250 c         1 MOL      0.139050
    105 O15        -3.9270    1.1630    0.2440 o         1 MOL     -0.409383
    106 C36        -3.4350    0.3410    3.6000 c3        1 MOL      0.072734
    107 C37        -2.8100   -0.8930    4.3210 c3        1 MOL      0.450990
    108 C38        -4.8990    0.3220    3.4090 c3        1 MOL     -0.540285
    109 C39        -3.6220   -1.4420    5.5050 c3        1 MOL     -0.389422
    110 H46        -1.1850    1.5760    3.2930 hn        1 MOL      0.321366
    111 H47        -2.6650   -0.3580    1.6990 h1        1 MOL      0.054254
    112 H48        -3.2710    1.2470    4.1780 hc        1 MOL     -0.015743
    113 H49        -1.8240   -0.5240    4.6210 hc        1 MOL     -0.090043
    114 H50        -2.6300   -1.7240    3.6490 hc        1 MOL     -0.090043
    115 H51        -5.2580   -0.5380    2.8480 hc        1 MOL      0.130903
    116 H52        -5.4200    0.2360    4.3670 hc        1 MOL      0.130903
    117 H53        -5.2400    1.2070    2.8750 hc        1 MOL      0.130903
    118 H54        -4.4540   -2.0710    5.1920 hc        1 MOL      0.095851
    119 H55        -3.0080   -1.9880    6.2120 hc        1 MOL      0.095851
    120 H56        -3.9750   -0.5820    6.0860 hc        1 MOL      0.095851
    121 N11        -3.0630    2.8800    1.3980 n         1 MOL      0.008032
    122 C40        -3.4630    3.9680    0.5350 c3        1 MOL     -0.104001
    123 C41        -4.9960    3.9510    0.4320 c         1 MOL      0.301142
    124 O16        -5.5550    4.1970   -0.5810 o         1 MOL     -0.436835
    125 C42        -2.8500    5.2990    0.9910 c3        1 MOL      0.159317
    126 O17        -1.4210    5.2800    1.1300 oh        1 MOL     -0.638203
    127 H57        -2.5650    3.1540    2.2350 hn        1 MOL      0.195755
    128 H58        -3.0830    3.7690   -0.4680 h1        1 MOL      0.093937
    129 H59        -3.3890    5.5980    1.8970 h1        1 MOL      0.032937
    130 H60        -3.0530    6.1290    0.3200 h1        1 MOL      0.032937
    131 H61        -1.1340    6.1080    1.5360 ho        1 MOL      0.441758
    132 N12        -5.6640    3.6670    1.5780 n         1 MOL     -0.077903
    133 C43        -7.0960    3.3940    1.6910 c3        1 MOL      0.113817
    134 C44        -7.8010    2.4860    0.6220 c         1 MOL      0.462187
    135 O18        -8.9990    2.6560    0.3630 o         1 MOL     -0.521387
    136 C45        -7.7730    4.7520    1.9160 c3        1 MOL     -0.382843
    137 H62        -5.1250    3.6970    2.4280 hn        1 MOL      0.159965
    138 H63        -7.1630    2.8830    2.6430 h1        1 MOL      0.065441
    139 H64        -8.6530    4.6620    2.5540 hc        1 MOL      0.104028
    140 H65        -7.0370    5.3810    2.4190 hc        1 MOL      0.104028
    141 H66        -7.9730    5.2520    0.9620 hc        1 MOL      0.104028
    142 N13        -7.0760    1.5640    0.0140 n         1 MOL     -0.429412
    143 C46        -7.5970    0.6400   -1.0730 c3        1 MOL      0.447595
    144 C47        -7.7430   -0.8830   -0.6250 c         1 MOL      0.250743
    145 O19        -7.1410   -1.4440    0.3220 o         1 MOL     -0.468968
    146 C48        -6.6880    0.7290   -2.2630 c3        1 MOL     -0.237703
    147 H67        -6.0960    1.5620    0.2560 hn        1 MOL      0.159842
    148 H68        -8.5890    0.9730   -1.3930 h1        1 MOL      0.013376
    149 H69        -5.6260    0.5940   -2.0720 hc        1 MOL      0.052597
    150 H70        -7.0270   -0.0620   -2.9330 hc        1 MOL      0.052597
    151 H71        -6.7560    1.7260   -2.7190 hc        1 MOL      0.052597
    152 N14        -8.6000   -1.5530   -1.4100 n         1 MOL     -0.346995
    153 C49        -9.1710   -2.9210   -1.0970 c3        1 MOL      0.106959
    154 C50        -9.6420   -3.1360    0.3830 c         1 MOL      0.371990
    155 O20        -9.5290   -4.1990    1.0230 o         1 MOL     -0.507583
    156 C51        -8.4550   -4.1300   -1.6330 c3        1 MOL      0.148924
    157 C52        -8.0410   -4.0040   -3.1140 c3        1 MOL     -0.089616
    158 C53        -9.3370   -4.1080   -3.9590 c         1 MOL      0.649674
    159 O21        -9.9370   -3.0340   -4.2130 o         1 MOL     -0.658494
    160 O22        -9.8310   -5.2660   -4.1860 o         1 MOL     -0.658494
    161 H72        -8.8490   -0.9920   -2.2080 hn        1 MOL      0.231442
    162 H73       -10.1520   -2.9630   -1.5720 h1        1 MOL      0.048748
    163 H74        -9.0830   -5.0140   -1.4990 hc        1 MOL     -0.009468
    164 H75        -7.5860   -4.3470   -1.0050 hc        1 MOL     -0.009468
    165 H76        -7.3470   -4.7960   -3.3660 hc        1 MOL     -0.050497
    166 H77        -7.5610   -3.0320   -3.2800 hc        1 MOL     -0.050497
    167 N15       -10.0730   -2.0230    0.9870 n         1 MOL     -0.260297
    168 C54       -10.2440   -1.7530    2.4270 c3        1 MOL      0.025927
    169 H78        -9.5900   -0.9330    2.7230 h1        1 MOL      0.041882
    170 H79       -11.2810   -1.4800    2.6260 h1        1 MOL      0.041882
    171 H80        -9.9880   -2.6460    2.9980 h1        1 MOL      0.041882
    172 H81       -10.1910   -1.2180    0.3780 hn        1 MOL      0.196212
    173 Ca1        -0.5870   -1.3610   -1.6730 Ca        1 MOL      1.784013
    174 O23        -0.0070   -3.8020   -2.7810 oh        1 MOL     -0.867739
    175 H82        -0.6440   -4.1580   -3.3950 ho        1 MOL      0.429268
    176 H83         0.8240   -4.1990   -3.0330 ho        1 MOL      0.429268
    177 O24        -3.1270   -1.1190   -0.8350 oh        1 MOL     -0.867739
    178 H84        -3.7310   -1.5870   -0.2700 ho        1 MOL      0.429268
    179 H85        -3.3930   -0.1970   -0.7720 ho        1 MOL      0.429268
    180 O25         0.7850   -0.9550   -4.2260 oh        1 MOL     -0.867739
    181 H86         1.5800   -1.4660   -4.3980 ho        1 MOL      0.429268
    182 H87         0.1700   -1.2270   -4.9100 ho        1 MOL      0.429268
    183 O26        -1.3840   -2.8680    0.4010 oh        1 MOL     -0.867739
    184 H88        -2.3350   -2.9450    0.2970 ho        1 MOL      0.429268
    185 H89        -1.1420   -3.5970    0.9810 ho        1 MOL      0.429268
    186 O27        -2.3840   -1.5710   -3.5110 oh        1 MOL     -0.867739
    187 H90        -3.0180   -1.0120   -3.0780 ho        1 MOL      0.429268
    188 H91        -2.6780   -1.6130   -4.4250 ho        1 MOL      0.429268
@<TRIPOS>BOND
     1    1    2 1   
     2    1    4 1   
     3    1    5 1   
     4    1    6 1   
     5    2    3 2   
     6    2    7 1   
     7    7    8 1   
     8    7   15 1   
     9    8    9 1   
    10    8   11 1   
    11    8   16 1   
    12    9   10 2   
    13    9   19 1   
    14   11   12 1   
    15   11   17 1   
    16   11   18 1   
    17   12   13 1   
    18   12   14 1   
    19   19   20 1   
    20   19   28 1   
    21   20   21 1   
    22   20   23 1   
    23   20   29 1   
    24   21   22 2   
    25   21   41 1   
    26   23   24 1   
    27   23   30 1   
    28   23   31 1   
    29   24   25 1   
    30   24   32 1   
    31   24   33 1   
    32   25   26 1   
    33   25   34 1   
    34   25   35 1   
    35   26   27 1   
    36   26   36 1   
    37   26   37 1   
    38   27   38 1   
    39   27   39 1   
    40   27   40 1   
    41   41   42 1   
    42   41   49 1   
    43   42   43 1   
    44   42   45 1   
    45   42   50 1   
    46   43   44 2   
    47   43   53 1   
    48   45   46 1   
    49   45   51 1   
    50   45   52 1   
    51   46   47 1   
    52   46   48 1   
    53   53   54 1   
    54   53   57 1   
    55   54   55 1   
    56   54   58 1   
    57   54   59 1   
    58   55   56 2   
    59   55   60 1   
    60   60   61 1   
    61   60   68 1   
    62   61   62 1   
    63   61   64 1   
    64   61   69 1   
    65   62   63 2   
    66   62   74 1   
    67   64   65 1   
    68   64   70 1   
    69   64   71 1   
    70   65   66 1   
    71   65   67 2   
    72   66   72 1   
    73   66   73 1   
    74   74   75 1   
    75   74   78 1   
    76   75   76 1   
    77   75   79 1   
    78   75   80 1   
    79   76   77 2   
    80   76   81 1   
    81   81   82 1   
    82   81   93 1   
    83   82   83 1   
    84   82   85 1   
    85   82   94 1   
    86   83   84 2   
    87   83  102 1   
    88   85   86 1   
    89   85   95 1   
    90   85   96 1   
    91   86   87 ar  
    92   86   88 ar  
    93   87   89 ar  
    94   87   97 1   
    95   88   90 ar  
    96   88   98 1   
    97   89   91 ar  
    98   89   99 1   
    99   90   91 ar  
   100   90  100 1   
   101   91   92 1   
   102   92  101 1   
   103  102  103 1   
   104  102  110 1   
   105  103  104 1   
   106  103  106 1   
   107  103  111 1   
   108  104  105 2   
   109  104  121 1   
   110  106  107 1   
   111  106  108 1   
   112  106  112 1   
   113  107  109 1   
   114  107  113 1   
   115  107  114 1   
   116  108  115 1   
   117  108  116 1   
   118  108  117 1   
   119  109  118 1   
   120  109  119 1   
   121  109  120 1   
   122  121  122 1   
   123  121  127 1   
   124  122  123 1   
   125  122  125 1   
   126  122  128 1   
   127  123  124 2   
   128  123  132 1   
   129  125  126 1   
   130  125  129 1   
   131  125  130 1   
   132  126  131 1   
   133  132  133 1   
   134  132  137 1   
   135  133  134 1   
   136  133  136 1   
   137  133  138 1   
   138  134  135 2   
   139  134  142 1   
   140  136  139 1   
   141  136  140 1   
   142  136  141 1   
   143  142  143 1   
   144  142  147 1   
   145  143  144 1   
   146  143  146 1   
   147  143  148 1   
   148  144  145 2   
   149  144  152 1   
   150  146  149 1   
   151  146  150 1   
   152  146  151 1   
   153  152  153 1   
   154  152  161 1   
   155  153  154 1   
   156  153  156 1   
   157  153  162 1   
   158  154  155 2   
   159  154  167 1   
   160  156  157 1   
   161  156  163 1   
   162  156  164 1   
   163  157  158 1   
   164  157  165 1   
   165  157  166 1   
   166  158  159 1   
   167  158  160 1   
   168  167  168 1   
   169  167  172 1   
   170  168  169 1   
   171  168  170 1   
   172  168  171 1   
   173  174  175 1   
   174  174  176 1   
   175  177  178 1   
   176  177  179 1   
   177  180  181 1   
   178  180  182 1   
   179  183  184 1   
   180  183  185 1   
   181  186  187 1   
   182  186  188 1   
@<TRIPOS>SUBSTRUCTURE
     1 MOL         1 TEMP              0 ****  ****    0 ROOT
