@<TRIPOS>MOLECULE
MOL
  188   182     1     0     0
SMALL
resp


@<TRIPOS>ATOM
      1 C1         -6.1580   -1.6720    3.0960 c3        1 MOL     -0.357466
      2 C2         -6.7690   -1.5690    1.7230 c         1 MOL      0.528122
      3 O1         -6.1030   -1.1910    0.7470 o         1 MOL     -0.491242
      4 H1         -6.5720   -2.5370    3.6130 hc        1 MOL      0.088223
      5 H2         -5.0780   -1.7860    3.0050 hc        1 MOL      0.088223
      6 H3         -6.3820   -0.7690    3.6630 hc        1 MOL      0.088223
      7 N1         -8.0740   -1.8610    1.6300 n         1 MOL     -0.399033
      8 C3         -8.9910   -1.8100    0.5210 c3        1 MOL      0.166679
      9 C4         -8.9970   -0.4350   -0.1920 c         1 MOL      0.243828
     10 O2         -9.1690   -0.3470   -1.4220 o         1 MOL     -0.398405
     11 C5         -8.7830   -3.1290   -0.2310 c3        1 MOL     -0.414083
     12 C6         -9.5830   -3.3400   -1.5050 c         1 MOL      0.850773
     13 O3        -10.8630   -3.2580   -1.4170 o         1 MOL     -0.686879
     14 O4         -9.0560   -3.6510   -2.5250 o         1 MOL     -0.686879
     15 H4         -8.4650   -2.0990    2.5370 hn        1 MOL      0.266324
     16 H5         -9.9310   -1.8130    1.0820 h1        1 MOL      0.038107
     17 H6         -9.0400   -3.9750    0.4060 hc        1 MOL      0.122618
     18 H7         -7.7280   -3.1400   -0.4940 hc        1 MOL      0.122618
     19 N2         -8.5960    0.7500    0.4120 n         1 MOL     -0.140115
     20 C7         -8.4080    2.0480   -0.1560 c3        1 MOL     -0.031373
     21 C8         -6.9090    2.4430   -0.4640 c         1 MOL      0.650693
     22 O5         -6.6580    3.5030   -1.0030 o         1 MOL     -0.586849
     23 C9         -9.0590    3.0540    0.8340 c3        1 MOL      0.006152
     24 C10       -10.5690    2.8710    0.8700 c3        1 MOL      0.031442
     25 C11       -11.2520    3.8570    1.7970 c3        1 MOL     -0.246777
     26 C12       -12.7740    3.4020    1.8990 c3        1 MOL      0.209652
     27 N3        -13.6440    4.4010    2.6960 n4        1 MOL     -0.294440
     28 H8         -8.4570    0.6910    1.4040 hn        1 MOL      0.124889
     29 H9         -8.9970    2.1250   -1.0650 h1        1 MOL      0.078519
     30 H10        -8.8750    4.0740    0.5060 hc        1 MOL      0.007813
     31 H11        -8.6300    3.0070    1.8320 hc        1 MOL      0.007813
     32 H12       -10.8990    1.8740    1.1310 hc        1 MOL      0.036714
     33 H13       -10.9410    3.0490   -0.1440 hc        1 MOL      0.036714
     34 H14       -11.2100    4.8190    1.3010 hc        1 MOL      0.087420
     35 H15       -10.8590    3.7830    2.8110 hc        1 MOL      0.087420
     36 H16       -12.7440    2.4190    2.3760 hx        1 MOL      0.036381
     37 H17       -13.1950    3.2530    0.9110 hx        1 MOL      0.036381
     38 H18       -13.6760    5.3280    2.2900 hn        1 MOL      0.224238
     39 H19       -14.6450    4.2530    2.7180 hn        1 MOL      0.224238
     40 H20       -13.4310    4.5140    3.6800 hn        1 MOL      0.224238
     41 N4         -5.9520    1.6710    0.0510 n         1 MOL     -0.514418
     42 C13        -4.5450    1.9940    0.0410 c3        1 MOL      0.035476
     43 C14        -4.1360    2.2250   -1.4000 c         1 MOL      0.526132
     44 O6         -4.3490    1.3840   -2.2910 o         1 MOL     -0.486989
     45 C15        -3.7830    0.8150    0.7480 c3        1 MOL     -0.316110
     46 C16        -2.2460    1.0980    0.6390 c         1 MOL      0.703174
     47 O7         -1.5830    1.1620    1.6860 o         1 MOL     -0.781309
     48 O8         -1.6660    0.9120   -0.5110 o         1 MOL     -0.781309
     49 H21        -6.3110    0.9000    0.5870 hn        1 MOL      0.302930
     50 H22        -4.3770    2.9420    0.5580 h1        1 MOL      0.027515
     51 H23        -3.9230   -0.0520    0.1030 hc        1 MOL      0.153192
     52 H24        -4.1010    0.7200    1.7820 hc        1 MOL      0.153192
     53 N5         -3.3910    3.2550   -1.7520 n         1 MOL     -0.216972
     54 C17        -3.0720    3.5910   -3.1860 c3        1 MOL     -0.294452
     55 C18        -2.1780    2.6600   -4.0010 c         1 MOL      0.646713
     56 O9         -1.9540    2.9370   -5.1960 o         1 MOL     -0.567377
     57 H25        -3.0590    3.8370   -0.9950 hn        1 MOL      0.190606
     58 H26        -2.6680    4.6030   -3.1100 h1        1 MOL      0.138491
     59 H27        -4.0020    3.6060   -3.7490 h1        1 MOL      0.138491
     60 N6         -1.6050    1.6580   -3.3270 n         1 MOL     -0.461830
     61 C19        -0.8720    0.5360   -4.0810 c3        1 MOL      0.074481
     62 C20        -1.0940   -0.9280   -3.4640 c         1 MOL      0.410202
     63 O10        -0.1930   -1.7820   -3.4960 o         1 MOL     -0.510126
     64 C21         0.6520    0.9540   -4.2010 c3        1 MOL     -0.400162
     65 C22         1.4520    0.9560   -2.9100 c         1 MOL      0.862043
     66 N7          2.7210    1.0340   -2.9320 n         1 MOL     -0.845458
     67 O11         0.9110    0.9050   -1.8320 o         1 MOL     -0.631207
     68 H28        -1.8730    1.5390   -2.3530 hn        1 MOL      0.296668
     69 H29        -1.3060    0.5120   -5.0830 h1        1 MOL      0.112390
     70 H30         0.5830    1.9530   -4.6210 hc        1 MOL      0.136771
     71 H31         1.1020    0.3010   -4.9510 hc        1 MOL      0.136771
     72 H32         3.1130    0.6310   -3.7680 hn        1 MOL      0.360787
     73 H33         3.1570    0.9850   -2.0170 hn        1 MOL      0.360787
     74 N8         -2.3030   -1.1570   -2.8630 n         1 MOL     -0.227764
     75 C23        -2.8980   -2.4840   -2.4610 c3        1 MOL     -0.228458
     76 C24        -2.2800   -3.1550   -1.2080 c         1 MOL      0.535073
     77 O12        -2.7040   -4.2740   -0.8440 o         1 MOL     -0.549163
     78 H34        -2.8500   -0.3100   -2.8140 hn        1 MOL      0.192925
     79 H35        -2.7970   -3.2050   -3.2640 h1        1 MOL      0.164680
     80 H36        -3.9670   -2.2770   -2.3500 h1        1 MOL      0.164680
     81 N9         -1.3830   -2.4320   -0.5580 n         1 MOL     -0.356720
     82 C25        -0.5780   -2.9850    0.5950 c3        1 MOL      0.098298
     83 C26         0.7260   -2.3450    0.7400 c         1 MOL      0.283352
     84 O13         0.8020   -1.1010    0.4760 o         1 MOL     -0.487547
     85 C27        -1.4610   -2.9440    1.8780 c3        1 MOL     -0.348302
     86 C28        -0.6910   -3.3100    3.1040 ca        1 MOL      0.093210
     87 C29        -0.3540   -4.6030    3.2810 ca        1 MOL     -0.169504
     88 C30        -0.3560   -2.3230    4.0790 ca        1 MOL     -0.169504
     89 C31         0.3080   -4.9890    4.5100 ca        1 MOL     -0.274205
     90 C32         0.2620   -2.6810    5.3060 ca        1 MOL     -0.274205
     91 C33         0.6560   -4.0450    5.4960 ca        1 MOL      0.356242
     92 O14         1.3200   -4.3680    6.6760 oh        1 MOL     -0.505530
     93 H37        -1.0670   -1.5970   -1.0270 hn        1 MOL      0.274040
     94 H38        -0.3530   -4.0240    0.3620 h1        1 MOL      0.029425
     95 H39        -2.2840   -3.6530    1.8110 hc        1 MOL      0.189971
     96 H40        -1.9290   -1.9610    1.9510 hc        1 MOL      0.189971
     97 H41        -0.6150   -5.3870    2.5790 ha        1 MOL      0.149810
     98 H42        -0.5310   -1.2780    3.8810 ha        1 MOL      0.149810
     99 H43         0.5290   -6.0400    4.6120 ha        1 MOL      0.156499
    100 H44         0.4160   -1.9160    6.0520 ha        1 MOL      0.156499
    101 H45         1.2420   -3.6500    7.3130 ho        1 MOL      0.380861
    102 N10         1.7920   -3.1120    0.9930 n         1 MOL     -0.069201
    103 C34         3.2050   -2.6960    1.0740 c3        1 MOL     -0.112108
    104 C35         3.7130   -2.3280   -0.3440 c         1 MOL      0.381989
    105 O15         4.5880   -1.4810   -0.4150 o         1 MOL     -0.509329
    106 C36         3.9320   -3.8190    1.7950 c3        1 MOL      0.066943
    107 C37         3.5890   -4.2050    3.2610 c3        1 MOL      0.225424
    108 C38         5.4290   -3.6290    1.7210 c3        1 MOL     -0.405450
    109 C39         3.5050   -3.0430    4.2180 c3        1 MOL     -0.269511
    110 H46         1.5530   -4.0900    1.0580 hn        1 MOL      0.191588
    111 H47         3.2300   -1.7990    1.6810 h1        1 MOL      0.050801
    112 H48         3.8840   -4.7000    1.1510 hc        1 MOL     -0.012635
    113 H49         4.1930   -5.0260    3.6330 hc        1 MOL     -0.013790
    114 H50         2.5840   -4.6120    3.1050 hc        1 MOL     -0.013790
    115 H51         6.0230   -4.3730    2.2530 hc        1 MOL      0.114503
    116 H52         5.7350   -3.6250    0.6780 hc        1 MOL      0.114503
    117 H53         5.6960   -2.6940    2.1980 hc        1 MOL      0.114503
    118 H54         3.4560   -3.3350    5.2650 hc        1 MOL      0.052635
    119 H55         4.4690   -2.5610    4.0640 hc        1 MOL      0.052635
    120 H56         2.6780   -2.3910    3.9260 hc        1 MOL      0.052635
    121 N11         3.1050   -2.8870   -1.4070 n         1 MOL     -0.157839
    122 C40         3.3420   -2.5290   -2.8310 c3        1 MOL     -0.004482
    123 C41         4.6790   -1.9530   -3.2340 c         1 MOL      0.590205
    124 O16         4.6680   -0.9800   -3.9910 o         1 MOL     -0.529852
    125 C42         3.1830   -3.8180   -3.6250 c3        1 MOL     -0.020923
    126 O17         3.9620   -4.9660   -3.3840 oh        1 MOL     -0.655058
    127 H57         2.5220   -3.6910   -1.2330 hn        1 MOL      0.208554
    128 H58         2.5710   -1.7940   -3.0580 h1        1 MOL      0.007191
    129 H59         3.2970   -3.5810   -4.6780 h1        1 MOL      0.084730
    130 H60         2.1430   -4.1520   -3.5180 h1        1 MOL      0.084730
    131 H61         3.4700   -5.7020   -3.7750 ho        1 MOL      0.454079
    132 N12         5.7230   -2.5690   -2.6920 n         1 MOL     -0.218794
    133 C43         7.1580   -2.2420   -3.0000 c3        1 MOL      0.116718
    134 C44         7.5220   -0.7730   -2.8670 c         1 MOL      0.450167
    135 O18         8.1010   -0.1850   -3.8030 o         1 MOL     -0.502241
    136 C45         7.5010   -2.8790   -4.2920 c3        1 MOL     -0.254977
    137 H62         5.4470   -3.3280   -2.0880 hn        1 MOL      0.227395
    138 H63         7.6910   -2.7430   -2.1870 h1        1 MOL      0.049178
    139 H64         7.4560   -3.9620   -4.1390 hc        1 MOL      0.079354
    140 H65         6.7210   -2.5960   -4.9930 hc        1 MOL      0.079354
    141 H66         8.4910   -2.6860   -4.7130 hc        1 MOL      0.079354
    142 N13         7.1240   -0.1740   -1.7530 n         1 MOL     -0.392972
    143 C46         7.3560    1.2520   -1.5180 c3        1 MOL      0.026076
    144 C47         7.6240    1.6480   -0.0690 c         1 MOL      0.632797
    145 O19         6.9810    1.0960    0.8680 o         1 MOL     -0.523592
    146 C48         6.1810    2.1300   -1.9450 c3        1 MOL     -0.038000
    147 H67         6.7430   -0.6930   -0.9680 hn        1 MOL      0.197661
    148 H68         8.1240    1.6700   -2.1640 h1        1 MOL      0.056468
    149 H69         5.3160    2.0110   -1.2910 hc        1 MOL      0.030946
    150 H70         6.5130    3.1710   -1.8390 hc        1 MOL      0.030946
    151 H71         5.9290    2.0720   -3.0060 hc        1 MOL      0.030946
    152 N14         8.4950    2.6690    0.1430 n         1 MOL     -0.682517
    153 C49         8.9780    3.0830    1.5000 c3        1 MOL      0.165125
    154 C50         9.4680    2.0320    2.4660 c         1 MOL      0.389463
    155 O20         9.4920    2.2270    3.6630 o         1 MOL     -0.507864
    156 C51         7.9020    3.9680    2.1740 c3        1 MOL      0.179617
    157 C52         7.5030    5.1850    1.3290 c3        1 MOL      0.062183
    158 C53         7.0280    6.3510    2.1170 c         1 MOL      0.653230
    159 O21         5.9570    6.1890    2.7950 o         1 MOL     -0.707148
    160 O22         7.7680    7.3610    2.0480 o         1 MOL     -0.707148
    161 H72         8.9940    3.1120   -0.6250 hn        1 MOL      0.347236
    162 H73         9.8370    3.7300    1.3470 h1        1 MOL      0.053442
    163 H74         8.4440    4.4660    2.9720 hc        1 MOL     -0.056635
    164 H75         7.0660    3.4250    2.6140 hc        1 MOL     -0.056635
    165 H76         6.6860    4.9990    0.6450 hc        1 MOL     -0.082895
    166 H77         8.3480    5.4230    0.6920 hc        1 MOL     -0.082895
    167 N15         9.9540    0.9670    1.9240 n         1 MOL     -0.239520
    168 C54        10.1990   -0.2890    2.6070 c3        1 MOL     -0.057687
    169 H78         9.7870   -0.2410    3.6140 h1        1 MOL      0.059980
    170 H79         9.7200   -1.1010    2.0580 h1        1 MOL      0.059980
    171 H80        11.2720   -0.4700    2.6620 h1        1 MOL      0.059980
    172 H81        10.1020    0.9580    0.9300 hn        1 MOL      0.199559
    173 Ca1         0.7320    1.6350    0.6580 Ca        1 MOL      1.812569
    174 O23         1.6920    0.5390    2.8650 oh        1 MOL     -0.854058
    175 H82         2.3630    1.0900    3.2770 ho        1 MOL      0.426395
    176 H83         1.7380   -0.2890    3.3430 ho        1 MOL      0.426395
    177 O24         1.0450    3.5600    2.6520 oh        1 MOL     -0.854058
    178 H84         0.7940    3.5550    3.5780 ho        1 MOL      0.426395
    179 H85         1.2130    4.4880    2.4580 ho        1 MOL      0.426395
    180 O25        -0.6540    3.8810   -0.1430 oh        1 MOL     -0.854058
    181 H86        -1.0910    4.4490    0.4850 ho        1 MOL      0.426395
    182 H87        -0.3250    4.4740   -0.8170 ho        1 MOL      0.426395
    183 O26         3.4990    0.7850    0.5610 oh        1 MOL     -0.854058
    184 H88         3.6630   -0.1570    0.5160 ho        1 MOL      0.426395
    185 H89         4.1580    1.1090    1.1610 ho        1 MOL      0.426395
    186 O27         2.3380    3.6950   -0.3810 oh        1 MOL     -0.854058
    187 H90         2.9440    3.9880    0.2980 ho        1 MOL      0.426395
    188 H91         2.6350    4.1280   -1.1790 ho        1 MOL      0.426395
@<TRIPOS>BOND
     1    1    2 1   
     2    1    4 1   
     3    1    5 1   
     4    1    6 1   
     5    2    3 2   
     6    2    7 1   
     7    7    8 1   
     8    7   15 1   
     9    8    9 1   
    10    8   11 1   
    11    8   16 1   
    12    9   10 2   
    13    9   19 1   
    14   11   12 1   
    15   11   17 1   
    16   11   18 1   
    17   12   13 1   
    18   12   14 1   
    19   19   20 1   
    20   19   28 1   
    21   20   21 1   
    22   20   23 1   
    23   20   29 1   
    24   21   22 2   
    25   21   41 1   
    26   23   24 1   
    27   23   30 1   
    28   23   31 1   
    29   24   25 1   
    30   24   32 1   
    31   24   33 1   
    32   25   26 1   
    33   25   34 1   
    34   25   35 1   
    35   26   27 1   
    36   26   36 1   
    37   26   37 1   
    38   27   38 1   
    39   27   39 1   
    40   27   40 1   
    41   41   42 1   
    42   41   49 1   
    43   42   43 1   
    44   42   45 1   
    45   42   50 1   
    46   43   44 2   
    47   43   53 1   
    48   45   46 1   
    49   45   51 1   
    50   45   52 1   
    51   46   47 1   
    52   46   48 1   
    53   53   54 1   
    54   53   57 1   
    55   54   55 1   
    56   54   58 1   
    57   54   59 1   
    58   55   56 2   
    59   55   60 1   
    60   60   61 1   
    61   60   68 1   
    62   61   62 1   
    63   61   64 1   
    64   61   69 1   
    65   62   63 2   
    66   62   74 1   
    67   64   65 1   
    68   64   70 1   
    69   64   71 1   
    70   65   66 1   
    71   65   67 2   
    72   66   72 1   
    73   66   73 1   
    74   74   75 1   
    75   74   78 1   
    76   75   76 1   
    77   75   79 1   
    78   75   80 1   
    79   76   77 2   
    80   76   81 1   
    81   81   82 1   
    82   81   93 1   
    83   82   83 1   
    84   82   85 1   
    85   82   94 1   
    86   83   84 2   
    87   83  102 1   
    88   85   86 1   
    89   85   95 1   
    90   85   96 1   
    91   86   87 ar  
    92   86   88 ar  
    93   87   89 ar  
    94   87   97 1   
    95   88   90 ar  
    96   88   98 1   
    97   89   91 ar  
    98   89   99 1   
    99   90   91 ar  
   100   90  100 1   
   101   91   92 1   
   102   92  101 1   
   103  102  103 1   
   104  102  110 1   
   105  103  104 1   
   106  103  106 1   
   107  103  111 1   
   108  104  105 2   
   109  104  121 1   
   110  106  107 1   
   111  106  108 1   
   112  106  112 1   
   113  107  109 1   
   114  107  113 1   
   115  107  114 1   
   116  108  115 1   
   117  108  116 1   
   118  108  117 1   
   119  109  118 1   
   120  109  119 1   
   121  109  120 1   
   122  121  122 1   
   123  121  127 1   
   124  122  123 1   
   125  122  125 1   
   126  122  128 1   
   127  123  124 2   
   128  123  132 1   
   129  125  126 1   
   130  125  129 1   
   131  125  130 1   
   132  126  131 1   
   133  132  133 1   
   134  132  137 1   
   135  133  134 1   
   136  133  136 1   
   137  133  138 1   
   138  134  135 2   
   139  134  142 1   
   140  136  139 1   
   141  136  140 1   
   142  136  141 1   
   143  142  143 1   
   144  142  147 1   
   145  143  144 1   
   146  143  146 1   
   147  143  148 1   
   148  144  145 2   
   149  144  152 1   
   150  146  149 1   
   151  146  150 1   
   152  146  151 1   
   153  152  153 1   
   154  152  161 1   
   155  153  154 1   
   156  153  156 1   
   157  153  162 1   
   158  154  155 2   
   159  154  167 1   
   160  156  157 1   
   161  156  163 1   
   162  156  164 1   
   163  157  158 1   
   164  157  165 1   
   165  157  166 1   
   166  158  159 1   
   167  158  160 1   
   168  167  168 1   
   169  167  172 1   
   170  168  169 1   
   171  168  170 1   
   172  168  171 1   
   173  174  175 1   
   174  174  176 1   
   175  177  178 1   
   176  177  179 1   
   177  180  181 1   
   178  180  182 1   
   179  183  184 1   
   180  183  185 1   
   181  186  187 1   
   182  186  188 1   
@<TRIPOS>SUBSTRUCTURE
     1 MOL         1 TEMP              0 ****  ****    0 ROOT
