@<TRIPOS>MOLECULE
MOL
  192   187     1     0     0
SMALL
resp


@<TRIPOS>ATOM
      1 C1          4.8030   -2.0630   -2.3100 c3        1 MOL     -0.320116
      2 C2          3.8710   -2.6560   -1.1350 c         1 MOL      0.547019
      3 O1          2.9310   -2.0290   -0.6970 o         1 MOL     -0.492136
      4 H1          5.5760   -1.4300   -1.8750 hc        1 MOL      0.061500
      5 H2          5.2710   -2.8850   -2.8530 hc        1 MOL      0.061500
      6 H3          4.1950   -1.4730   -2.9950 hc        1 MOL      0.061500
      7 N1          4.0660   -3.9280   -0.7950 n         1 MOL     -0.171045
      8 C3          3.2410   -4.6110    0.2180 c3        1 MOL     -0.097944
      9 C4          1.6900   -4.7840   -0.0520 c         1 MOL      0.683126
     10 O2          0.8670   -4.5020    0.7300 o         1 MOL     -0.512670
     11 C5          3.5710   -4.0560    1.6690 c3        1 MOL     -0.354751
     12 C6          5.0220   -3.9780    2.0040 c         1 MOL      0.619416
     13 O3          5.4890   -3.1370    2.8530 o         1 MOL     -0.664143
     14 O4          5.8720   -4.7340    1.4230 o         1 MOL     -0.664143
     15 H4          4.9500   -4.3440   -1.0360 hn        1 MOL      0.127561
     16 H5          3.6100   -5.6310    0.2520 h1        1 MOL      0.057495
     17 H6          3.0350   -4.5980    2.4400 hc        1 MOL      0.140914
     18 H7          3.2300   -3.0270    1.7670 hc        1 MOL      0.140914
     19 N2          1.3690   -4.8910   -1.3650 n         1 MOL     -0.444574
     20 C7         -0.0830   -5.0850   -1.6960 c3        1 MOL     -0.000094
     21 C8         -0.4740   -6.5340   -1.4350 c         1 MOL      0.449867
     22 O5          0.3970   -7.4110   -1.3230 o         1 MOL     -0.598675
     23 C9         -0.2720   -4.6550   -3.1900 c3        1 MOL      0.235212
     24 C10         0.7320   -5.2910   -4.1480 c3        1 MOL      0.187324
     25 C11        -0.2510   -3.1480   -3.2830 c3        1 MOL     -0.502992
     26 C12         0.2810   -5.3420   -5.5800 c3        1 MOL     -0.309323
     27 H8          2.1060   -5.0610   -2.0330 hn        1 MOL      0.158801
     28 H9         -0.7430   -4.4290   -1.1220 h1        1 MOL      0.117802
     29 H10        -1.2800   -5.0350   -3.3610 hc        1 MOL      0.027927
     30 H11         0.9120   -6.3030   -3.7860 hc        1 MOL     -0.026044
     31 H12         1.6880   -4.7640   -4.0780 hc        1 MOL     -0.026044
     32 H13        -0.7640   -2.7380   -2.4100 hc        1 MOL      0.117252
     33 H14         0.7720   -2.7780   -3.1960 hc        1 MOL      0.117252
     34 H15        -0.7290   -2.8520   -4.2150 hc        1 MOL      0.117252
     35 H16         0.5110   -4.3510   -5.9910 hc        1 MOL      0.056900
     36 H17         0.8830   -6.1120   -6.0660 hc        1 MOL      0.056900
     37 H18        -0.7860   -5.5530   -5.6740 hc        1 MOL      0.056900
     38 N3         -1.6900   -6.8810   -1.1260 n         1 MOL     -0.369522
     39 C13        -2.9490   -6.0570   -1.1710 c3        1 MOL     -0.161805
     40 C14        -3.7190   -6.2410    0.1940 c         1 MOL      0.585597
     41 O6         -3.7630   -7.4010    0.7180 o         1 MOL     -0.567194
     42 C15        -3.8050   -6.5780   -2.3230 c3        1 MOL     -0.113912
     43 C16        -5.0560   -5.7370   -2.4870 c         1 MOL      0.728322
     44 O7         -6.0490   -6.3880   -2.9450 o         1 MOL     -0.738729
     45 O8         -5.1520   -4.5580   -2.1280 o         1 MOL     -0.738729
     46 H19        -1.7950   -7.7950   -0.7160 hn        1 MOL      0.298766
     47 H20        -2.7800   -5.0130   -1.4100 h1        1 MOL      0.060170
     48 H21        -4.1160   -7.6190   -2.1980 hc        1 MOL      0.024148
     49 H22        -3.2440   -6.5420   -3.2550 hc        1 MOL      0.024148
     50 N4         -4.3400   -5.2340    0.7990 n         1 MOL     -0.242891
     51 C17        -4.8210   -5.4130    2.1740 c3        1 MOL     -0.135462
     52 C18        -5.6970   -4.2390    2.5870 c         1 MOL      0.483010
     53 O9         -6.8830   -4.2200    2.2810 o         1 MOL     -0.512756
     54 H23        -4.3330   -4.3320    0.3600 hn        1 MOL      0.254395
     55 H24        -4.0300   -5.6270    2.8970 h1        1 MOL      0.078924
     56 H25        -5.3970   -6.3420    2.2020 h1        1 MOL      0.078924
     57 N5         -5.0830   -3.1500    3.0970 n         1 MOL     -0.390656
     58 C19        -5.6710   -1.8140    3.5220 c3        1 MOL      0.075834
     59 C20        -6.7320   -1.2460    2.4790 c         1 MOL      0.450119
     60 O10        -7.8720   -0.9880    2.8550 o         1 MOL     -0.557747
     61 C21        -4.5490   -0.6960    3.6320 c3        1 MOL     -0.399901
     62 C22        -3.4910   -0.6210    2.5930 c         1 MOL      0.790681
     63 O11        -3.6690    0.2020    1.6710 o         1 MOL     -0.707122
     64 O12        -2.5410   -1.4260    2.5580 o         1 MOL     -0.707122
     65 H26        -4.0770   -3.1910    3.0020 hn        1 MOL      0.231567
     66 H27        -6.1370   -1.8480    4.5040 h1        1 MOL      0.056928
     67 H28        -4.0020   -0.8080    4.5620 hc        1 MOL      0.093204
     68 H29        -5.0350    0.2650    3.7920 hc        1 MOL      0.093204
     69 N6         -6.4020   -1.2100    1.1870 n         1 MOL     -0.044362
     70 C23        -7.2390   -0.7270    0.0440 c3        1 MOL     -0.263933
     71 C24        -7.4810    0.7640   -0.0800 c         1 MOL      0.542505
     72 O13        -8.4890    1.2270   -0.7050 o         1 MOL     -0.553384
     73 H30        -5.4560   -1.4150    0.9100 hn        1 MOL      0.214024
     74 H31        -8.1130   -1.3810    0.0020 h1        1 MOL      0.125294
     75 H32        -6.6850   -1.0870   -0.8230 h1        1 MOL      0.125294
     76 N7         -6.7320    1.4260    0.8150 n         1 MOL     -0.155924
     77 C25        -6.6950    2.9120    1.0240 c3        1 MOL     -0.071651
     78 C26        -6.5130    3.7440   -0.2760 c         1 MOL      0.391708
     79 O14        -6.9810    4.9030   -0.2160 o         1 MOL     -0.480654
     80 C27        -7.9040    3.3640    1.9120 c3        1 MOL      0.216159
     81 C28        -7.9860    2.6960    3.2590 c3        1 MOL     -0.289187
     82 C29        -7.1030    3.3750    4.3170 c         1 MOL      0.732422
     83 N8         -7.0950    2.8330    5.5510 n         1 MOL     -0.900586
     84 O15        -6.4730    4.3470    4.0660 o         1 MOL     -0.550017
     85 H33        -6.1470    0.7950    1.3470 hn        1 MOL      0.047095
     86 H34        -5.8040    3.0790    1.6430 h1        1 MOL      0.120570
     87 H35        -8.8370    3.2500    1.3580 hc        1 MOL     -0.017524
     88 H36        -7.9090    4.4400    2.0970 hc        1 MOL     -0.017524
     89 H37        -7.5740    1.6830    3.1650 hc        1 MOL      0.063327
     90 H38        -8.9840    2.5960    3.7020 hc        1 MOL      0.063327
     91 H39        -7.6290    1.9940    5.6820 hn        1 MOL      0.379229
     92 H40        -6.5020    3.2560    6.2590 hn        1 MOL      0.379229
     93 N9         -5.9270    3.1580   -1.3650 n         1 MOL     -0.214859
     94 C30        -5.7830    3.7160   -2.6690 c3        1 MOL     -0.106769
     95 C31        -4.3470    3.9070   -3.1770 c         1 MOL      0.483014
     96 O16        -3.9820    4.5130   -4.1730 o         1 MOL     -0.572795
     97 C32        -6.7000    3.1630   -3.8130 c3        1 MOL      0.244485
     98 C33        -6.5910    1.6830   -3.8770 c3        1 MOL     -0.272222
     99 C34        -8.1870    3.4620   -3.6080 c3        1 MOL     -0.272222
    100 H41        -5.6720    2.1850   -1.3160 hn        1 MOL      0.202262
    101 H42        -6.0830    4.7580   -2.5870 h1        1 MOL      0.092006
    102 H43        -6.3230    3.5230   -4.7660 hc        1 MOL     -0.018927
    103 H44        -7.0210    1.3600   -4.8290 hc        1 MOL      0.061619
    104 H45        -5.5810    1.3290   -4.0790 hc        1 MOL      0.061619
    105 H46        -7.1250    1.2740   -3.0200 hc        1 MOL      0.061619
    106 H47        -8.7460    2.8280   -4.3030 hc        1 MOL      0.061619
    107 H48        -8.4350    3.0940   -2.6140 hc        1 MOL      0.061619
    108 H49        -8.4220    4.5270   -3.6830 hc        1 MOL      0.061619
    109 N10        -3.4630    3.2880   -2.4340 n         1 MOL     -0.349299
    110 C35        -2.0200    3.1080   -2.6530 c3        1 MOL      0.328871
    111 C36        -1.2210    3.2470   -1.3500 c         1 MOL      0.347301
    112 O17        -1.7560    3.0600   -0.2590 o         1 MOL     -0.490982
    113 C37        -1.7480    1.7550   -3.4770 c3        1 MOL     -0.034192
    114 C38        -0.4410    1.0880   -3.2680 c         1 MOL      0.489930
    115 N11        -0.3720    0.0420   -2.4990 n         1 MOL     -0.614261
    116 O18         0.5610    1.6680   -3.6360 o         1 MOL     -0.568469
    117 H50        -3.8890    2.8650   -1.6190 hn        1 MOL      0.179262
    118 H51        -1.6150    3.8570   -3.3290 h1        1 MOL      0.008425
    119 H52        -1.8140    2.0090   -4.5320 hc        1 MOL      0.012292
    120 H53        -2.5280    1.0130   -3.3290 hc        1 MOL      0.012292
    121 H54        -1.2060   -0.3590   -2.1040 hn        1 MOL      0.333011
    122 H55         0.5490   -0.3600   -2.3410 hn        1 MOL      0.333011
    123 N12         0.1110    3.4830   -1.4670 n         1 MOL     -0.497431
    124 C39         0.9990    3.6080   -0.2810 c3        1 MOL      0.337765
    125 C40         2.4290    4.1300   -0.6820 c         1 MOL      0.282832
    126 O19         2.9860    3.7630   -1.7510 o         1 MOL     -0.513919
    127 C41         1.1380    2.2810    0.3580 c3        1 MOL     -0.075220
    128 C42         1.3360    2.4490    1.8560 ca        1 MOL      0.040668
    129 C43         2.6170    2.5660    2.4280 ca        1 MOL     -0.195205
    130 C44         0.2280    2.6030    2.7020 ca        1 MOL     -0.195205
    131 C45         2.7320    2.8610    3.8070 ca        1 MOL     -0.220762
    132 C46         0.3730    2.8020    4.1040 ca        1 MOL     -0.220762
    133 C47         1.6130    3.0490    4.6400 ca        1 MOL      0.295721
    134 O20         1.7620    3.3790    5.8950 oh        1 MOL     -0.484406
    135 H56         0.4590    3.6580   -2.3930 hn        1 MOL      0.290946
    136 H57         0.6130    4.3960    0.3840 h1        1 MOL      0.022749
    137 H58         1.9760    1.7360   -0.0690 hc        1 MOL      0.080743
    138 H59         0.2550    1.6880    0.0980 hc        1 MOL      0.080743
    139 H60         3.5100    2.3350    1.8660 ha        1 MOL      0.176905
    140 H61        -0.7560    2.4250    2.2990 ha        1 MOL      0.176905
    141 H62         3.7450    2.7720    4.1780 ha        1 MOL      0.133019
    142 H63        -0.4830    2.8790    4.7610 ha        1 MOL      0.133019
    143 H64         2.6840    3.5090    6.1250 ho        1 MOL      0.358121
    144 N13         3.1180    4.8580    0.2180 n         1 MOL     -0.385651
    145 C48         4.4240    5.3730    0.0210 c3        1 MOL      0.266390
    146 C49         5.5510    4.7020    0.8270 c         1 MOL      0.267793
    147 O21         5.8260    5.0320    2.0540 o         1 MOL     -0.584618
    148 C50         4.3450    6.8900    0.1920 c3        1 MOL     -0.019731
    149 C51         3.3740    7.5090   -0.7730 c3        1 MOL     -0.210186
    150 C52         3.5060    9.0490   -0.6200 c         1 MOL      0.727116
    151 O22         3.2060    9.8050   -1.5630 o         1 MOL     -0.697791
    152 O23         3.8630    9.5630    0.5100 o         1 MOL     -0.697791
    153 H65         2.7670    5.0660    1.1450 hn        1 MOL      0.273694
    154 H66         4.7370    5.1800   -1.0040 h1        1 MOL      0.070899
    155 H67         5.3370    7.3250    0.0220 hc        1 MOL      0.020436
    156 H68         4.0140    7.0350    1.2190 hc        1 MOL      0.020436
    157 H69         2.3730    7.2080   -0.4900 hc        1 MOL      0.035440
    158 H70         3.6670    7.3550   -1.8140 hc        1 MOL      0.035440
    159 N14         6.1020    3.6620    0.3470 n         1 MOL     -0.206650
    160 C53         5.9090    2.8780   -0.9070 c3        1 MOL     -0.168420
    161 C54         6.4960    3.5890   -2.0960 c         1 MOL      0.512830
    162 O24         7.3860    4.4210   -1.9030 o         1 MOL     -0.541870
    163 C55         6.5410    1.4600   -0.6990 c3        1 MOL     -0.008276
    164 C56         5.8010    0.6860    0.4560 c3        1 MOL     -0.082155
    165 C57         6.5030   -0.5790    0.8290 c         1 MOL      1.044269
    166 O25         6.1190   -1.6620    0.4130 o         1 MOL     -0.865501
    167 O26         7.5100   -0.6390    1.5140 o         1 MOL     -0.865501
    168 H71         6.9100    3.2900    0.8330 hn        1 MOL      0.276954
    169 H72         4.8360    2.7450   -1.0510 h1        1 MOL      0.146713
    170 H73         7.5750    1.6180   -0.3890 hc        1 MOL     -0.011736
    171 H74         6.5070    0.9510   -1.6540 hc        1 MOL     -0.011736
    172 H75         4.7280    0.6860    0.3070 hc        1 MOL     -0.016201
    173 H76         5.8130    1.2620    1.3850 hc        1 MOL     -0.016201
    174 N15         5.9090    3.3330   -3.2390 n         1 MOL     -0.300473
    175 C58         6.0600    3.9670   -4.5290 c3        1 MOL     -0.161505
    176 H77         7.1190    4.1190   -4.7370 h1        1 MOL      0.086969
    177 H78         5.6260    3.3310   -5.3000 h1        1 MOL      0.086969
    178 H79         5.5500    4.9310   -4.5230 h1        1 MOL      0.086969
    179 H80         5.1220    2.7030   -3.1430 hn        1 MOL      0.286713
    180 Ca1         7.9910   -3.3100    1.2340 Ca        1 MOL      1.757974
    181 O27         8.3550   -3.2000    3.7590 oh        1 MOL     -0.874788
    182 H81         7.7250   -3.4230    4.4360 ho        1 MOL      0.410446
    183 H82         9.1810   -3.0680    4.2330 ho        1 MOL      0.410446
    184 O28         8.5400   -5.8380    2.1400 oh        1 MOL     -0.874788
    185 H83         8.5180   -6.7830    1.9550 ho        1 MOL      0.410446
    186 H84         8.8180   -5.7750    3.0520 ho        1 MOL      0.410446
    187 O29        10.6590   -3.6050    1.3170 oh        1 MOL     -0.874788
    188 H85        11.0170   -2.7760    0.9830 ho        1 MOL      0.410446
    189 H86        11.3890   -4.0370    1.7450 ho        1 MOL      0.410446
    190 O30         8.9910   -2.0130   -0.7570 oh        1 MOL     -0.874788
    191 H87         9.7880   -2.0620   -1.2860 ho        1 MOL      0.410446
    192 H88         8.4810   -1.3070   -1.1650 ho        1 MOL      0.410446
@<TRIPOS>BOND
     1    1    2 1   
     2    1    4 1   
     3    1    5 1   
     4    1    6 1   
     5    2    3 2   
     6    2    7 1   
     7    7    8 1   
     8    7   15 1   
     9    8    9 1   
    10    8   11 1   
    11    8   16 1   
    12    9   10 2   
    13    9   19 1   
    14   11   12 1   
    15   11   17 1   
    16   11   18 1   
    17   12   13 1   
    18   12   14 1   
    19   19   20 1   
    20   19   27 1   
    21   20   21 1   
    22   20   23 1   
    23   20   28 1   
    24   21   22 2   
    25   21   38 1   
    26   23   24 1   
    27   23   25 1   
    28   23   29 1   
    29   24   26 1   
    30   24   30 1   
    31   24   31 1   
    32   25   32 1   
    33   25   33 1   
    34   25   34 1   
    35   26   35 1   
    36   26   36 1   
    37   26   37 1   
    38   38   39 1   
    39   38   46 1   
    40   39   40 1   
    41   39   42 1   
    42   39   47 1   
    43   40   41 2   
    44   40   50 1   
    45   42   43 1   
    46   42   48 1   
    47   42   49 1   
    48   43   44 1   
    49   43   45 1   
    50   50   51 1   
    51   50   54 1   
    52   51   52 1   
    53   51   55 1   
    54   51   56 1   
    55   52   53 2   
    56   52   57 1   
    57   57   58 1   
    58   57   65 1   
    59   58   59 1   
    60   58   61 1   
    61   58   66 1   
    62   59   60 2   
    63   59   69 1   
    64   61   62 1   
    65   61   67 1   
    66   61   68 1   
    67   62   63 1   
    68   62   64 1   
    69   69   70 1   
    70   69   73 1   
    71   70   71 1   
    72   70   74 1   
    73   70   75 1   
    74   71   72 2   
    75   71   76 1   
    76   76   77 1   
    77   76   85 1   
    78   77   78 1   
    79   77   80 1   
    80   77   86 1   
    81   78   79 2   
    82   78   93 1   
    83   80   81 1   
    84   80   87 1   
    85   80   88 1   
    86   81   82 1   
    87   81   89 1   
    88   81   90 1   
    89   82   83 1   
    90   82   84 2   
    91   83   91 1   
    92   83   92 1   
    93   93   94 1   
    94   93  100 1   
    95   94   95 1   
    96   94   97 1   
    97   94  101 1   
    98   95   96 2   
    99   95  109 1   
   100   97   98 1   
   101   97   99 1   
   102   97  102 1   
   103   98  103 1   
   104   98  104 1   
   105   98  105 1   
   106   99  106 1   
   107   99  107 1   
   108   99  108 1   
   109  109  110 1   
   110  109  117 1   
   111  110  111 1   
   112  110  113 1   
   113  110  118 1   
   114  111  112 2   
   115  111  123 1   
   116  113  114 1   
   117  113  119 1   
   118  113  120 1   
   119  114  115 1   
   120  114  116 2   
   121  115  121 1   
   122  115  122 1   
   123  123  124 1   
   124  123  135 1   
   125  124  125 1   
   126  124  127 1   
   127  124  136 1   
   128  125  126 2   
   129  125  144 1   
   130  127  128 1   
   131  127  137 1   
   132  127  138 1   
   133  128  129 ar  
   134  128  130 ar  
   135  129  131 ar  
   136  129  139 1   
   137  130  132 ar  
   138  130  140 1   
   139  131  133 ar  
   140  131  141 1   
   141  132  133 ar  
   142  132  142 1   
   143  133  134 1   
   144  134  143 1   
   145  144  145 1   
   146  144  153 1   
   147  145  146 1   
   148  145  148 1   
   149  145  154 1   
   150  146  147 2   
   151  146  159 1   
   152  148  149 1   
   153  148  155 1   
   154  148  156 1   
   155  149  150 1   
   156  149  157 1   
   157  149  158 1   
   158  150  151 1   
   159  150  152 1   
   160  159  160 1   
   161  159  168 1   
   162  160  161 1   
   163  160  163 1   
   164  160  169 1   
   165  161  162 2   
   166  161  174 1   
   167  163  164 1   
   168  163  170 1   
   169  163  171 1   
   170  164  165 1   
   171  164  172 1   
   172  164  173 1   
   173  165  166 1   
   174  165  167 1   
   175  174  175 1   
   176  174  179 1   
   177  175  176 1   
   178  175  177 1   
   179  175  178 1   
   180  181  182 1   
   181  181  183 1   
   182  184  185 1   
   183  184  186 1   
   184  187  188 1   
   185  187  189 1   
   186  190  191 1   
   187  190  192 1   
@<TRIPOS>SUBSTRUCTURE
     1 MOL         1 TEMP              0 ****  ****    0 ROOT
