@<TRIPOS>MOLECULE
MOL
  188   182     1     0     0
SMALL
resp


@<TRIPOS>ATOM
      1 C1         -6.2770    3.8380   -1.8730 c3        1 MOL     -0.289085
      2 C2         -6.4880    2.8860   -0.6540 c         1 MOL      0.573507
      3 O1         -5.9350    1.8280   -0.5620 o         1 MOL     -0.506042
      4 H1         -6.5260    3.3100   -2.7940 hc        1 MOL      0.080968
      5 H2         -6.9230    4.7100   -1.7700 hc        1 MOL      0.080968
      6 H3         -5.2360    4.1580   -1.9080 hc        1 MOL      0.080968
      7 N1         -7.4260    3.1830    0.2700 n         1 MOL     -0.438740
      8 C3         -8.0120    2.4390    1.3920 c3        1 MOL      0.211967
      9 C4         -8.3300    0.9710    1.0460 c         1 MOL      0.483114
     10 O2         -8.2210    0.0780    1.8460 o         1 MOL     -0.475977
     11 C5         -7.1490    2.6260    2.6160 c3        1 MOL     -0.232310
     12 C6         -7.9230    2.6180    3.9210 c         1 MOL      0.670485
     13 O3         -9.1320    2.8430    3.8790 o         1 MOL     -0.653954
     14 O4         -7.2670    2.5380    4.9970 o         1 MOL     -0.653954
     15 H4         -7.7460    4.1270    0.0670 hn        1 MOL      0.256061
     16 H5         -9.0020    2.8780    1.5450 h1        1 MOL     -0.000179
     17 H6         -6.5350    3.5270    2.5150 hc        1 MOL      0.070242
     18 H7         -6.3930    1.8390    2.6360 hc        1 MOL      0.070242
     19 N2         -8.7410    0.7690   -0.2250 n         1 MOL     -0.351050
     20 C7         -9.0350   -0.5460   -0.8300 c3        1 MOL     -0.054412
     21 C8         -7.8110   -1.4480   -1.0540 c         1 MOL      0.475220
     22 O5         -8.0710   -2.5720   -1.4500 o         1 MOL     -0.587922
     23 C9         -9.9480   -0.4280   -2.0770 c3        1 MOL     -0.147026
     24 C10        -9.3050    0.4350   -3.0590 c3        1 MOL      0.423243
     25 C11        -9.9190    0.1670   -4.4230 c3        1 MOL      0.040267
     26 C12        -9.4060   -1.0310   -5.1260 c3        1 MOL     -0.045200
     27 N3        -10.4670   -2.0160   -5.3100 n4        1 MOL     -0.122057
     28 H8         -9.0020    1.5500   -0.8040 hn        1 MOL      0.190248
     29 H9         -9.6830   -1.0880   -0.1470 h1        1 MOL      0.131193
     30 H10       -10.8990    0.0520   -1.8700 hc        1 MOL      0.036478
     31 H11       -10.1440   -1.4060   -2.5040 hc        1 MOL      0.036478
     32 H12        -8.2270    0.2550   -3.1320 hc        1 MOL     -0.098413
     33 H13        -9.3690    1.5000   -2.8690 hc        1 MOL     -0.098413
     34 H14        -9.5920    1.0510   -4.9650 hc        1 MOL     -0.023889
     35 H15       -11.0060    0.2490   -4.3870 hc        1 MOL     -0.023889
     36 H16        -8.5950   -1.4240   -4.5050 hx        1 MOL      0.074627
     37 H17        -9.0900   -0.8270   -6.1510 hx        1 MOL      0.074627
     38 H18       -11.1350   -1.6380   -5.9660 hn        1 MOL      0.198712
     39 H19       -10.0780   -2.8240   -5.7670 hn        1 MOL      0.198712
     40 H20       -10.9160   -2.3160   -4.4530 hn        1 MOL      0.198712
     41 N4         -6.6050   -0.9980   -0.8270 n         1 MOL     -0.059371
     42 C13        -5.3730   -1.7950   -1.0680 c3        1 MOL     -0.188741
     43 C14        -5.0550   -2.7900    0.0890 c         1 MOL      0.558129
     44 O6         -5.4370   -2.5590    1.2220 o         1 MOL     -0.409906
     45 C15        -4.2300   -0.8050   -1.2060 c3        1 MOL     -0.201462
     46 C16        -2.8310   -1.3670   -1.2990 c         1 MOL      1.090127
     47 O7         -2.3320   -1.5900   -2.4030 o         1 MOL     -0.858014
     48 O8         -2.2110   -1.6120   -0.2330 o         1 MOL     -0.858014
     49 H21        -6.6160    0.0050   -0.7200 hn        1 MOL      0.110679
     50 H22        -5.4160   -2.2810   -2.0400 h1        1 MOL      0.052097
     51 H23        -4.2790   -0.1190   -0.3550 hc        1 MOL      0.056502
     52 H24        -4.5050   -0.2080   -2.0800 hc        1 MOL      0.056502
     53 N5         -4.4680   -3.9820   -0.2310 n         1 MOL     -0.413680
     54 C17        -4.1710   -5.1750    0.6260 c3        1 MOL      0.096795
     55 C18        -3.4420   -4.9110    1.9440 c         1 MOL      0.401943
     56 O9         -3.6410   -5.6200    2.9400 o         1 MOL     -0.508374
     57 H25        -4.2770   -4.0700   -1.2170 hn        1 MOL      0.246962
     58 H26        -3.4840   -5.7820    0.0290 h1        1 MOL      0.035689
     59 H27        -5.0790   -5.7690    0.7050 h1        1 MOL      0.035689
     60 N6         -2.6570   -3.8190    1.8990 n         1 MOL     -0.073258
     61 C19        -2.0900   -3.3090    3.1010 c3        1 MOL      0.034158
     62 C20        -2.3350   -1.7900    3.2940 c         1 MOL      0.427027
     63 O10        -1.6040   -1.0740    3.9910 o         1 MOL     -0.559586
     64 C21        -0.6020   -3.7160    3.2040 c3        1 MOL     -0.463658
     65 C22         0.3970   -2.9900    2.3660 c         1 MOL      0.537405
     66 N7          1.6680   -3.1480    2.6880 n         1 MOL     -0.684591
     67 O11         0.1510   -2.1710    1.5130 o         1 MOL     -0.393791
     68 H28        -2.3640   -3.4200    1.0220 hn        1 MOL      0.063910
     69 H29        -2.5910   -3.7650    3.9630 h1        1 MOL      0.135281
     70 H30        -0.5320   -4.7690    2.9120 hc        1 MOL      0.148379
     71 H31        -0.2180   -3.6200    4.2250 hc        1 MOL      0.148379
     72 H32         1.8160   -3.8150    3.4370 hn        1 MOL      0.343615
     73 H33         2.4420   -2.7650    2.1660 hn        1 MOL      0.343615
     74 N8         -3.2150   -1.2100    2.5050 n         1 MOL      0.015376
     75 C23        -3.7160    0.1710    2.6630 c3        1 MOL     -0.219134
     76 C24        -2.9190    1.3230    2.1400 c         1 MOL      0.671913
     77 O12        -3.2380    2.4380    2.3810 o         1 MOL     -0.540178
     78 H34        -3.7130   -1.8160    1.8680 hn        1 MOL     -0.043490
     79 H35        -3.8590    0.2010    3.7430 h1        1 MOL      0.121300
     80 H36        -4.6660    0.3840    2.1650 h1        1 MOL      0.121300
     81 N9         -1.8720    1.0530    1.3390 n         1 MOL     -0.520872
     82 C25        -1.0100    1.9500    0.5580 c3        1 MOL      0.244639
     83 C26         0.3710    1.3900    0.2450 c         1 MOL      0.482564
     84 O13         0.5310    0.2270   -0.0090 o         1 MOL     -0.653303
     85 C27        -1.8500    2.2540   -0.7080 c3        1 MOL     -0.054223
     86 C28        -1.3690    3.4570   -1.5530 ca        1 MOL      0.010889
     87 C29        -1.5050    4.7780   -1.1540 ca        1 MOL     -0.120969
     88 C30        -0.8120    3.2290   -2.8100 ca        1 MOL     -0.120969
     89 C31        -1.1100    5.8910   -1.9950 ca        1 MOL     -0.315824
     90 C32        -0.3250    4.3030   -3.6200 ca        1 MOL     -0.315824
     91 C33        -0.4660    5.6270   -3.1900 ca        1 MOL      0.381420
     92 O14         0.0530    6.6520   -3.9980 oh        1 MOL     -0.463284
     93 H37        -1.6790    0.0730    1.2040 hn        1 MOL      0.269801
     94 H38        -0.8880    2.8610    1.1450 h1        1 MOL      0.013828
     95 H39        -2.8960    2.4040   -0.4430 hc        1 MOL      0.008144
     96 H40        -1.7790    1.3620   -1.3420 hc        1 MOL      0.008144
     97 H41        -2.0370    4.9430   -0.2350 ha        1 MOL      0.127123
     98 H42        -0.5600    2.2670   -3.2210 ha        1 MOL      0.127123
     99 H43        -1.2140    6.9100   -1.6520 ha        1 MOL      0.174023
    100 H44         0.1900    4.0660   -4.5340 ha        1 MOL      0.174023
    101 H45         0.3660    6.2360   -4.8010 ho        1 MOL      0.327751
    102 N10         1.3140    2.2950    0.3010 n         1 MOL     -0.364352
    103 C34         2.7160    2.0040   -0.1170 c3        1 MOL     -0.045188
    104 C35         3.3490    1.0110    0.8360 c         1 MOL      0.191333
    105 O15         4.1590    0.1420    0.4750 o         1 MOL     -0.421613
    106 C36         3.6080    3.3210   -0.2960 c3        1 MOL      0.137488
    107 C37         3.0970    4.3880   -1.2360 c3        1 MOL     -0.383608
    108 C38         5.0460    2.8620   -0.7680 c3        1 MOL     -0.456542
    109 C39         3.2510    4.1380   -2.7730 c3        1 MOL     -0.052240
    110 H46         1.1180    3.2250    0.6350 hn        1 MOL      0.271802
    111 H47         2.7240    1.3980   -1.0280 h1        1 MOL      0.138921
    112 H48         3.7100    3.7530    0.6980 hc        1 MOL     -0.006932
    113 H49         3.7540    5.2470   -1.1100 hc        1 MOL      0.156867
    114 H50         2.0650    4.6190   -0.9230 hc        1 MOL      0.156867
    115 H51         5.5480    3.7740   -1.0910 hc        1 MOL      0.149190
    116 H52         5.4940    2.4060    0.1210 hc        1 MOL      0.149190
    117 H53         5.0150    2.1610   -1.6030 hc        1 MOL      0.149190
    118 H54         2.7690    5.0160   -3.2170 hc        1 MOL      0.020509
    119 H55         4.3080    4.0630   -3.0120 hc        1 MOL      0.020509
    120 H56         2.7430    3.2270   -3.1120 hc        1 MOL      0.020509
    121 N11         2.8750    1.0380    2.0800 n         1 MOL      0.058718
    122 C40         3.2150    0.1160    3.1830 c3        1 MOL     -0.318218
    123 C41         4.7280    0.2830    3.5880 c         1 MOL      0.524747
    124 O16         5.3210   -0.6140    4.1610 o         1 MOL     -0.500029
    125 C42         2.3150    0.3070    4.4570 c3        1 MOL      0.138342
    126 O17         2.4040    1.6370    4.8340 oh        1 MOL     -0.643235
    127 H57         2.2610    1.8010    2.3300 hn        1 MOL      0.192083
    128 H58         3.0200   -0.9140    2.8840 h1        1 MOL      0.109597
    129 H59         2.6120   -0.3550    5.2680 h1        1 MOL      0.091800
    130 H60         1.2860    0.1200    4.1470 h1        1 MOL      0.091800
    131 H61         2.6280    1.7290    5.7660 ho        1 MOL      0.439693
    132 N12         5.3440    1.4280    3.2370 n         1 MOL     -0.263920
    133 C43         6.8210    1.7700    3.5360 c3        1 MOL      0.086835
    134 C44         7.8950    0.8450    2.9150 c         1 MOL      0.458103
    135 O18         8.9860    0.7670    3.4030 o         1 MOL     -0.523016
    136 C45         7.0500    2.0780    5.0640 c3        1 MOL     -0.332712
    137 H62         4.7990    2.2540    3.0170 hn        1 MOL      0.208847
    138 H63         6.9390    2.7220    3.0180 h1        1 MOL      0.065201
    139 H64         6.2530    2.7080    5.4700 hc        1 MOL      0.102652
    140 H65         7.0110    1.1370    5.6260 hc        1 MOL      0.102652
    141 H66         8.0040    2.5410    5.2930 hc        1 MOL      0.102652
    142 N13         7.4960    0.0310    1.9610 n         1 MOL     -0.316669
    143 C46         8.3320   -1.0180    1.2750 c3        1 MOL      0.133761
    144 C47         9.0110   -0.3580    0.0080 c         1 MOL      0.471652
    145 O19         8.4460    0.4810   -0.6310 o         1 MOL     -0.465427
    146 C48         7.3970   -2.1560    0.9000 c3        1 MOL     -0.098559
    147 H67         6.5310    0.0870    1.6660 hn        1 MOL      0.136589
    148 H68         9.0630   -1.3930    1.9890 h1        1 MOL      0.054693
    149 H69         6.5310   -1.8450    0.3080 hc        1 MOL      0.042941
    150 H70         7.9780   -2.8300    0.2760 hc        1 MOL      0.042941
    151 H71         7.0480   -2.7600    1.7290 hc        1 MOL      0.042941
    152 N14        10.1990   -0.8310   -0.4090 n         1 MOL     -0.502281
    153 C49        10.8510   -0.5960   -1.7010 c3        1 MOL      0.118567
    154 C50        11.0370    0.8960   -2.1020 c         1 MOL      0.325511
    155 O20        11.1600    1.1670   -3.3160 o         1 MOL     -0.475795
    156 C51        10.1780   -1.3840   -2.8560 c3        1 MOL      0.237786
    157 C52        10.0800   -2.8930   -2.6660 c3        1 MOL     -0.169269
    158 C53         9.6800   -3.5410   -3.9530 c         1 MOL      0.647522
    159 O21         8.4660   -3.9210   -4.0690 o         1 MOL     -0.640178
    160 O22        10.4490   -3.7590   -4.9000 o         1 MOL     -0.640178
    161 H72        10.7470   -1.4210    0.2010 hn        1 MOL      0.267106
    162 H73        11.8730   -0.9370   -1.5380 h1        1 MOL      0.048408
    163 H74        10.7760   -1.2600   -3.7530 hc        1 MOL     -0.027797
    164 H75         9.1500   -1.0550   -3.0240 hc        1 MOL     -0.027797
    165 H76         9.3730   -3.0920   -1.8630 hc        1 MOL     -0.007173
    166 H77        11.0900   -3.2160   -2.4220 hc        1 MOL     -0.007173
    167 N15        11.0850    1.8760   -1.1410 n         1 MOL     -0.253881
    168 C54        11.0200    3.3190   -1.3570 c3        1 MOL     -0.122465
    169 H78        11.4610    3.8350   -0.5050 h1        1 MOL      0.080161
    170 H79        11.5710    3.5780   -2.2620 h1        1 MOL      0.080161
    171 H80         9.9790    3.6250   -1.4660 h1        1 MOL      0.080161
    172 H81        11.1540    1.5520   -0.1810 hn        1 MOL      0.218983
    173 Ca1         0.1450   -2.0860   -1.1530 Ca        1 MOL      1.703630
    174 O23        -1.5380   -4.3170   -1.5350 oh        1 MOL     -0.804648
    175 H82        -2.2010   -4.5130   -2.2000 ho        1 MOL      0.400362
    176 H83        -1.0900   -5.1490   -1.3910 ho        1 MOL      0.400362
    177 O24         0.7670   -3.9670   -3.5250 oh        1 MOL     -0.804648
    178 H84         1.4450   -3.6240   -4.1000 ho        1 MOL      0.400362
    179 H85        -0.0380   -3.9150   -4.0370 ho        1 MOL      0.400362
    180 O25         1.3240   -4.3580   -0.5810 oh        1 MOL     -0.804648
    181 H86         1.2930   -4.9350   -1.3380 ho        1 MOL      0.400362
    182 H87         1.6550   -4.9140    0.1330 ho        1 MOL      0.400362
    183 O26         0.3580   -0.3030   -3.1110 oh        1 MOL     -0.804648
    184 H88        -0.2350    0.0530   -3.7740 ho        1 MOL      0.400362
    185 H89         1.1910    0.1380   -3.2750 ho        1 MOL      0.400362
    186 O27         2.6530   -1.4580   -1.7570 oh        1 MOL     -0.804648
    187 H90         2.8580   -0.9390   -2.5350 ho        1 MOL      0.400362
    188 H91         3.4580   -1.9300   -1.5540 ho        1 MOL      0.400362
@<TRIPOS>BOND
     1    1    2 1   
     2    1    4 1   
     3    1    5 1   
     4    1    6 1   
     5    2    3 2   
     6    2    7 1   
     7    7    8 1   
     8    7   15 1   
     9    8    9 1   
    10    8   11 1   
    11    8   16 1   
    12    9   10 2   
    13    9   19 1   
    14   11   12 1   
    15   11   17 1   
    16   11   18 1   
    17   12   13 1   
    18   12   14 1   
    19   19   20 1   
    20   19   28 1   
    21   20   21 1   
    22   20   23 1   
    23   20   29 1   
    24   21   22 2   
    25   21   41 1   
    26   23   24 1   
    27   23   30 1   
    28   23   31 1   
    29   24   25 1   
    30   24   32 1   
    31   24   33 1   
    32   25   26 1   
    33   25   34 1   
    34   25   35 1   
    35   26   27 1   
    36   26   36 1   
    37   26   37 1   
    38   27   38 1   
    39   27   39 1   
    40   27   40 1   
    41   41   42 1   
    42   41   49 1   
    43   42   43 1   
    44   42   45 1   
    45   42   50 1   
    46   43   44 2   
    47   43   53 1   
    48   45   46 1   
    49   45   51 1   
    50   45   52 1   
    51   46   47 1   
    52   46   48 1   
    53   53   54 1   
    54   53   57 1   
    55   54   55 1   
    56   54   58 1   
    57   54   59 1   
    58   55   56 2   
    59   55   60 1   
    60   60   61 1   
    61   60   68 1   
    62   61   62 1   
    63   61   64 1   
    64   61   69 1   
    65   62   63 2   
    66   62   74 1   
    67   64   65 1   
    68   64   70 1   
    69   64   71 1   
    70   65   66 1   
    71   65   67 2   
    72   66   72 1   
    73   66   73 1   
    74   74   75 1   
    75   74   78 1   
    76   75   76 1   
    77   75   79 1   
    78   75   80 1   
    79   76   77 2   
    80   76   81 1   
    81   81   82 1   
    82   81   93 1   
    83   82   83 1   
    84   82   85 1   
    85   82   94 1   
    86   83   84 2   
    87   83  102 1   
    88   85   86 1   
    89   85   95 1   
    90   85   96 1   
    91   86   87 ar  
    92   86   88 ar  
    93   87   89 ar  
    94   87   97 1   
    95   88   90 ar  
    96   88   98 1   
    97   89   91 ar  
    98   89   99 1   
    99   90   91 ar  
   100   90  100 1   
   101   91   92 1   
   102   92  101 1   
   103  102  103 1   
   104  102  110 1   
   105  103  104 1   
   106  103  106 1   
   107  103  111 1   
   108  104  105 2   
   109  104  121 1   
   110  106  107 1   
   111  106  108 1   
   112  106  112 1   
   113  107  109 1   
   114  107  113 1   
   115  107  114 1   
   116  108  115 1   
   117  108  116 1   
   118  108  117 1   
   119  109  118 1   
   120  109  119 1   
   121  109  120 1   
   122  121  122 1   
   123  121  127 1   
   124  122  123 1   
   125  122  125 1   
   126  122  128 1   
   127  123  124 2   
   128  123  132 1   
   129  125  126 1   
   130  125  129 1   
   131  125  130 1   
   132  126  131 1   
   133  132  133 1   
   134  132  137 1   
   135  133  134 1   
   136  133  136 1   
   137  133  138 1   
   138  134  135 2   
   139  134  142 1   
   140  136  139 1   
   141  136  140 1   
   142  136  141 1   
   143  142  143 1   
   144  142  147 1   
   145  143  144 1   
   146  143  146 1   
   147  143  148 1   
   148  144  145 2   
   149  144  152 1   
   150  146  149 1   
   151  146  150 1   
   152  146  151 1   
   153  152  153 1   
   154  152  161 1   
   155  153  154 1   
   156  153  156 1   
   157  153  162 1   
   158  154  155 2   
   159  154  167 1   
   160  156  157 1   
   161  156  163 1   
   162  156  164 1   
   163  157  158 1   
   164  157  165 1   
   165  157  166 1   
   166  158  159 1   
   167  158  160 1   
   168  167  168 1   
   169  167  172 1   
   170  168  169 1   
   171  168  170 1   
   172  168  171 1   
   173  174  175 1   
   174  174  176 1   
   175  177  178 1   
   176  177  179 1   
   177  180  181 1   
   178  180  182 1   
   179  183  184 1   
   180  183  185 1   
   181  186  187 1   
   182  186  188 1   
@<TRIPOS>SUBSTRUCTURE
     1 MOL         1 TEMP              0 ****  ****    0 ROOT
