@<TRIPOS>MOLECULE
MOL
  175   173     1     0     0
SMALL
resp


@<TRIPOS>ATOM
      1 C1         -6.5560    8.3660    1.2590 c3        1 MOL     -0.373351
      2 C2         -7.5890    7.4860    0.4810 c         1 MOL      0.656189
      3 O1         -8.2270    8.0120   -0.4610 o         1 MOL     -0.596927
      4 H1         -6.5040    8.0340    2.2960 hc        1 MOL      0.091190
      5 H2         -5.5740    8.2670    0.7960 hc        1 MOL      0.091190
      6 H3         -6.8690    9.4090    1.2270 hc        1 MOL      0.091190
      7 N1         -7.9540    6.2870    0.8900 n         1 MOL     -0.624127
      8 C3         -8.7940    5.3110    0.1650 c3        1 MOL      0.689168
      9 C4         -8.0980    3.9240   -0.0890 c         1 MOL      0.403169
     10 O2         -8.7450    2.8770   -0.0370 o         1 MOL     -0.463798
     11 C5         -9.9430    5.0330    1.0730 c3        1 MOL     -0.417716
     12 C6        -11.1790    4.3890    0.3370 c         1 MOL      0.666754
     13 O3        -11.2420    4.4170   -0.9090 o         1 MOL     -0.696801
     14 O4        -12.0540    3.7120    1.0260 o         1 MOL     -0.696801
     15 H4         -7.7250    6.0000    1.8260 hn        1 MOL      0.294442
     16 H5         -9.1860    5.7220   -0.7570 h1        1 MOL     -0.061179
     17 H6        -10.2540    5.9680    1.5390 hc        1 MOL      0.038464
     18 H7         -9.4890    4.5080    1.9070 hc        1 MOL      0.038464
     19 N2         -6.8720    4.0560   -0.5090 n         1 MOL     -0.739317
     20 C7         -6.2260    2.9370   -1.1690 c3        1 MOL      0.523593
     21 C8         -5.1950    2.3400   -0.1570 c         1 MOL      0.503686
     22 O5         -4.5850    3.1040    0.5930 o         1 MOL     -0.553488
     23 C9         -5.6450    3.4200   -2.5320 c3        1 MOL     -0.434120
     24 H8         -6.4410    4.9690   -0.5160 hn        1 MOL      0.307895
     25 H9         -6.9400    2.1700   -1.4550 h1        1 MOL      0.038846
     26 H10        -6.4170    3.9880   -3.0570 hc        1 MOL      0.111153
     27 H11        -4.8450    4.1230   -2.3150 hc        1 MOL      0.111153
     28 H12        -5.2530    2.5580   -3.0660 hc        1 MOL      0.111153
     29 N3         -4.8580    1.0430   -0.1490 n         1 MOL     -0.432401
     30 C10        -5.5880   -0.0650   -0.7860 c3        1 MOL     -0.050493
     31 C11        -5.7350   -1.3840    0.0400 c         1 MOL      0.617025
     32 O6         -4.9820   -1.6700    0.9300 o         1 MOL     -0.520708
     33 C12        -4.9460   -0.3670   -2.1760 c3        1 MOL     -0.061183
     34 C13        -3.4320   -0.2820   -2.3010 c         1 MOL      0.616891
     35 O7         -2.7620   -0.4370   -1.2880 o         1 MOL     -0.684104
     36 O8         -2.9040   -0.2230   -3.4190 o         1 MOL     -0.684104
     37 H13        -4.1420    0.7750    0.5030 hn        1 MOL      0.265627
     38 H14        -6.5910    0.3400   -0.9350 h1        1 MOL     -0.009299
     39 H15        -5.3900    0.3510   -2.8570 hc        1 MOL      0.008893
     40 H16        -5.2880   -1.3600   -2.4630 hc        1 MOL      0.008893
     41 N4         -6.7660   -2.1800   -0.3340 n         1 MOL     -0.456740
     42 C14        -7.1480   -3.4320    0.3090 c3        1 MOL      0.008338
     43 C15        -7.0790   -4.5280   -0.7550 c         1 MOL      0.539685
     44 O9         -8.1210   -5.1070   -1.1190 o         1 MOL     -0.542994
     45 H17        -7.2880   -1.9730   -1.1740 hn        1 MOL      0.321777
     46 H18        -8.2250   -3.3950    0.4600 h1        1 MOL      0.071001
     47 H19        -6.6270   -3.5190    1.2700 h1        1 MOL      0.071001
     48 N5         -5.8990   -4.9150   -1.2770 n         1 MOL     -0.552634
     49 C16        -4.5040   -4.4290   -0.9010 c3        1 MOL      0.264405
     50 C17        -4.1100   -4.9910    0.5040 c         1 MOL      0.404362
     51 O10        -4.2410   -6.1740    0.7780 o         1 MOL     -0.550985
     52 C18        -3.5020   -4.7890   -2.0080 c3        1 MOL     -0.221473
     53 C19        -2.1960   -4.0140   -1.8910 c         1 MOL      0.582828
     54 N6         -1.3570   -3.9590   -2.8910 n         1 MOL     -0.615267
     55 O11        -1.7750   -3.5770   -0.7770 o         1 MOL     -0.558813
     56 H20        -5.9740   -5.5310   -2.0840 hn        1 MOL      0.314186
     57 H21        -4.4250   -3.3570   -0.7920 h1        1 MOL     -0.015040
     58 H22        -3.9850   -4.5590   -2.9570 hc        1 MOL      0.079765
     59 H23        -3.1340   -5.8230   -2.0130 hc        1 MOL      0.079765
     60 H24        -1.6520   -4.3050   -3.8030 hn        1 MOL      0.320163
     61 H25        -0.4350   -3.6050   -2.7190 hn        1 MOL      0.320163
     62 N7         -3.6460   -4.1850    1.4390 n         1 MOL     -0.069240
     63 C20        -3.1950   -4.5990    2.8160 c3        1 MOL     -0.362450
     64 C21        -1.7240   -5.1300    2.8580 c         1 MOL      0.644931
     65 O12        -1.2750   -5.5800    3.9310 o         1 MOL     -0.574669
     66 H26        -3.6250   -3.1790    1.3760 hn        1 MOL      0.157958
     67 H27        -3.8470   -5.3400    3.2680 h1        1 MOL      0.144890
     68 H28        -3.2850   -3.6500    3.3350 h1        1 MOL      0.144890
     69 N8         -0.9850   -5.0090    1.7050 n         1 MOL     -0.311609
     70 C22         0.3980   -5.4490    1.4540 c3        1 MOL     -0.059524
     71 C23         1.3010   -4.2030    1.3210 c         1 MOL      0.317825
     72 O13         0.9320   -3.1550    0.7460 o         1 MOL     -0.531509
     73 C24         0.6120   -6.3690    0.2240 c3        1 MOL      0.564497
     74 C25        -0.2130   -7.6550    0.3220 c3        1 MOL     -0.550831
     75 O14         0.3340   -5.6640   -1.0050 oh        1 MOL     -0.640497
     76 H29        -1.3830   -4.5130    0.9260 hn        1 MOL      0.215207
     77 H30         0.7830   -6.0090    2.3040 h1        1 MOL      0.035082
     78 H31         1.6550   -6.6540    0.2580 h1        1 MOL     -0.066625
     79 H32         1.0950   -5.0810   -1.0490 ho        1 MOL      0.416840
     80 H33         0.2370   -8.3280   -0.4090 hc        1 MOL      0.134564
     81 H34        -0.2340   -8.0650    1.3390 hc        1 MOL      0.134564
     82 H35        -1.2320   -7.4450   -0.0010 hc        1 MOL      0.134564
     83 N9          2.5270   -4.1700    1.8690 n         1 MOL     -0.282554
     84 C26         3.4760   -3.0030    1.9290 c3        1 MOL      0.216347
     85 C27         4.2580   -2.8940    0.6270 c         1 MOL      0.138262
     86 O15         5.1010   -3.8050    0.4220 o         1 MOL     -0.538158
     87 C28         4.3180   -3.0040    3.1920 c3        1 MOL      0.051689
     88 C29         5.1490   -1.6670    3.3400 c3        1 MOL      0.130279
     89 C30         3.4490   -3.3860    4.3800 c3        1 MOL     -0.247925
     90 C31         4.3650   -0.4660    3.8510 c3        1 MOL     -0.226771
     91 H36         2.8090   -5.0410    2.3120 hn        1 MOL      0.252507
     92 H37         2.8130   -2.1420    2.0470 h1        1 MOL      0.083891
     93 H38         5.0460   -3.8000    3.0810 hc        1 MOL     -0.006747
     94 H39         5.5850   -1.3230    2.4040 hc        1 MOL     -0.018623
     95 H40         6.0280   -1.8510    3.9690 hc        1 MOL     -0.018623
     96 H41         4.0310   -3.4400    5.3040 hc        1 MOL      0.059004
     97 H42         2.6780   -2.6260    4.5400 hc        1 MOL      0.059004
     98 H43         3.0930   -4.4100    4.2890 hc        1 MOL      0.059004
     99 H44         4.2060   -0.7010    4.9010 hc        1 MOL      0.047994
    100 H45         5.0850    0.3330    3.6790 hc        1 MOL      0.047994
    101 H46         3.4280   -0.1990    3.3600 hc        1 MOL      0.047994
    102 N10         3.9440   -2.0010   -0.3260 n         1 MOL     -0.016483
    103 C32         4.4160   -2.0370   -1.6810 c3        1 MOL      0.306688
    104 C33         5.5770   -1.0030   -2.0570 c         1 MOL      0.429677
    105 O16         5.8580   -0.7290   -3.2350 o         1 MOL     -0.543399
    106 C34         3.2780   -2.1400   -2.6930 c3        1 MOL     -0.303306
    107 C35         2.0070   -2.9940   -2.3050 c         1 MOL      0.844532
    108 O17         2.1900   -4.2050   -2.0410 o         1 MOL     -0.704422
    109 O18         0.8680   -2.4700   -2.4150 o         1 MOL     -0.704422
    110 H47         3.2260   -1.3350   -0.1030 hn        1 MOL     -0.007729
    111 H48         4.9040   -2.9880   -1.9000 h1        1 MOL      0.030124
    112 H49         3.6550   -2.6660   -3.5670 hc        1 MOL      0.047632
    113 H50         2.8690   -1.1990   -3.0620 hc        1 MOL      0.047632
    114 N11         6.1930   -0.5240   -0.9940 n         1 MOL     -0.573761
    115 C36         7.2480    0.4730   -1.0840 c3        1 MOL      0.546046
    116 C37         6.7930    1.7870   -0.4470 c         1 MOL      0.430229
    117 O19         6.3240    1.7760    0.7340 o         1 MOL     -0.521680
    118 C38         8.5640   -0.0630   -0.4150 c3        1 MOL     -0.373088
    119 C39         9.7200    0.8670   -0.4790 ca        1 MOL      0.073937
    120 C40        10.0860    1.7190    0.6140 ca        1 MOL     -0.099459
    121 C41        10.5020    0.9960   -1.6200 ca        1 MOL     -0.099459
    122 C42        11.1910    2.5230    0.5830 ca        1 MOL     -0.196646
    123 C43        11.6070    1.8420   -1.7460 ca        1 MOL     -0.196646
    124 C44        12.0070    2.5250   -0.5710 ca        1 MOL     -0.053179
    125 H51         6.0330   -0.8420   -0.0450 hn        1 MOL      0.258056
    126 H52         7.4850    0.7270   -2.1130 h1        1 MOL     -0.022470
    127 H53         8.8190   -0.9110   -1.0570 hc        1 MOL      0.123011
    128 H54         8.3070   -0.3800    0.6000 hc        1 MOL      0.123011
    129 H55         9.5770    1.7510    1.5600 ha        1 MOL      0.105144
    130 H56        10.1860    0.4270   -2.4890 ha        1 MOL      0.105144
    131 H57        11.2390    3.2210    1.4060 ha        1 MOL      0.133616
    132 H58        12.0990    1.9670   -2.7090 ha        1 MOL      0.133616
    133 H59        12.8340    3.2140   -0.6610 ha        1 MOL      0.086314
    134 N12         7.0280    3.0310   -1.0040 n         1 MOL     -0.289304
    135 C45         7.0290    4.2950   -0.2470 c3        1 MOL      0.256157
    136 C46         5.5470    4.8400    0.0410 c         1 MOL      0.488226
    137 O20         5.2900    6.0490   -0.0500 o         1 MOL     -0.562775
    138 C47         7.9180    5.3970   -0.9030 c3        1 MOL     -0.380085
    139 C48         8.5600    4.5800   -1.9750 c3        1 MOL      0.443455
    140 C49         7.7810    3.2890   -2.2060 c3        1 MOL     -0.124488
    141 H60         7.3610    4.0640    0.7640 h1        1 MOL     -0.003015
    142 H61         7.3460    6.1590   -1.4390 hc        1 MOL      0.105667
    143 H62         8.7060    5.8800   -0.3190 hc        1 MOL      0.105667
    144 H63         8.5850    5.1690   -2.8980 hc        1 MOL     -0.094581
    145 H64         9.6190    4.4240   -1.7690 hc        1 MOL     -0.094581
    146 H65         7.2080    3.4990   -3.1130 h1        1 MOL      0.049110
    147 H66         8.4330    2.4790   -2.5270 h1        1 MOL      0.049110
    148 N13         4.5230    3.9560    0.1840 n         1 MOL     -0.305435
    149 C50         3.0760    4.3050    0.3750 c3        1 MOL     -0.115348
    150 C51         2.6850    5.0330    1.7420 c         1 MOL      0.432052
    151 O21         1.5040    5.2560    2.0610 o         1 MOL     -0.483930
    152 C52         2.1840    3.0720    0.1080 c3        1 MOL     -0.136617
    153 C53         2.4420    1.8690    1.0640 c3        1 MOL      0.232877
    154 C54         1.3540    0.8000    0.7040 c         1 MOL      0.525764
    155 O22         1.7510   -0.2940    0.2280 o         1 MOL     -0.656227
    156 O23         0.1820    0.8980    1.0290 o         1 MOL     -0.656227
    157 H67         4.7610    2.9950    0.3890 hn        1 MOL      0.117488
    158 H68         2.9370    5.0930   -0.3780 h1        1 MOL      0.143175
    159 H69         2.3230    2.7970   -0.9300 hc        1 MOL      0.049635
    160 H70         1.1760    3.4190    0.3620 hc        1 MOL      0.049635
    161 H71         2.4220    2.1230    2.1160 hc        1 MOL     -0.015160
    162 H72         3.4120    1.3990    0.9580 hc        1 MOL     -0.015160
    163 N14         3.6780    5.2800    2.5770 n         1 MOL     -0.220722
    164 C55         3.4650    5.9790    3.8500 c3        1 MOL     -0.200156
    165 H73         4.2680    5.7250    4.5420 h1        1 MOL      0.095861
    166 H74         3.4600    7.0560    3.6780 h1        1 MOL      0.095861
    167 H75         2.5080    5.6740    4.2770 h1        1 MOL      0.095861
    168 H76         4.6010    5.1400    2.1820 hn        1 MOL      0.217602
    169 Ca1        -0.5310   -1.2870   -0.5540 Ca        1 MOL      1.737711
    170 O24        -2.3480   -1.2450    1.4340 oh        1 MOL     -0.960313
    171 H77        -2.3370   -0.3960    1.8540 ho        1 MOL      0.448308
    172 H78        -3.2730   -1.5160    1.4460 ho        1 MOL      0.448308
    173 O25        -0.2380    0.4960   -2.5080 oh        1 MOL     -0.960313
    174 H79         0.4370    1.0740   -2.8690 ho        1 MOL      0.448308
    175 H80        -1.0660    0.8490   -2.8380 ho        1 MOL      0.448308
@<TRIPOS>BOND
     1    1    2 1   
     2    1    4 1   
     3    1    5 1   
     4    1    6 1   
     5    2    3 2   
     6    2    7 1   
     7    7    8 1   
     8    7   15 1   
     9    8    9 1   
    10    8   11 1   
    11    8   16 1   
    12    9   10 2   
    13    9   19 1   
    14   11   12 1   
    15   11   17 1   
    16   11   18 1   
    17   12   13 1   
    18   12   14 1   
    19   19   20 1   
    20   19   24 1   
    21   20   21 1   
    22   20   23 1   
    23   20   25 1   
    24   21   22 2   
    25   21   29 1   
    26   23   26 1   
    27   23   27 1   
    28   23   28 1   
    29   29   30 1   
    30   29   37 1   
    31   30   31 1   
    32   30   33 1   
    33   30   38 1   
    34   31   32 2   
    35   31   41 1   
    36   33   34 1   
    37   33   39 1   
    38   33   40 1   
    39   34   35 1   
    40   34   36 1   
    41   41   42 1   
    42   41   45 1   
    43   42   43 1   
    44   42   46 1   
    45   42   47 1   
    46   43   44 2   
    47   43   48 1   
    48   48   49 1   
    49   48   56 1   
    50   49   50 1   
    51   49   52 1   
    52   49   57 1   
    53   50   51 2   
    54   50   62 1   
    55   52   53 1   
    56   52   58 1   
    57   52   59 1   
    58   53   54 1   
    59   53   55 2   
    60   54   60 1   
    61   54   61 1   
    62   62   63 1   
    63   62   66 1   
    64   63   64 1   
    65   63   67 1   
    66   63   68 1   
    67   64   65 2   
    68   64   69 1   
    69   69   70 1   
    70   69   76 1   
    71   70   71 1   
    72   70   73 1   
    73   70   77 1   
    74   71   72 2   
    75   71   83 1   
    76   73   74 1   
    77   73   75 1   
    78   73   78 1   
    79   74   80 1   
    80   74   81 1   
    81   74   82 1   
    82   75   79 1   
    83   83   84 1   
    84   83   91 1   
    85   84   85 1   
    86   84   87 1   
    87   84   92 1   
    88   85   86 2   
    89   85  102 1   
    90   87   88 1   
    91   87   89 1   
    92   87   93 1   
    93   88   90 1   
    94   88   94 1   
    95   88   95 1   
    96   89   96 1   
    97   89   97 1   
    98   89   98 1   
    99   90   99 1   
   100   90  100 1   
   101   90  101 1   
   102  102  103 1   
   103  102  110 1   
   104  103  104 1   
   105  103  106 1   
   106  103  111 1   
   107  104  105 2   
   108  104  114 1   
   109  106  107 1   
   110  106  112 1   
   111  106  113 1   
   112  107  108 1   
   113  107  109 1   
   114  114  115 1   
   115  114  125 1   
   116  115  116 1   
   117  115  118 1   
   118  115  126 1   
   119  116  117 2   
   120  116  134 1   
   121  118  119 1   
   122  118  127 1   
   123  118  128 1   
   124  119  120 ar  
   125  119  121 ar  
   126  120  122 ar  
   127  120  129 1   
   128  121  123 ar  
   129  121  130 1   
   130  122  124 ar  
   131  122  131 1   
   132  123  124 ar  
   133  123  132 1   
   134  124  133 1   
   135  134  135 1   
   136  134  140 1   
   137  135  136 1   
   138  135  138 1   
   139  135  141 1   
   140  136  137 2   
   141  136  148 1   
   142  138  139 1   
   143  138  142 1   
   144  138  143 1   
   145  139  140 1   
   146  139  144 1   
   147  139  145 1   
   148  140  146 1   
   149  140  147 1   
   150  148  149 1   
   151  148  157 1   
   152  149  150 1   
   153  149  152 1   
   154  149  158 1   
   155  150  151 2   
   156  150  163 1   
   157  152  153 1   
   158  152  159 1   
   159  152  160 1   
   160  153  154 1   
   161  153  161 1   
   162  153  162 1   
   163  154  155 1   
   164  154  156 1   
   165  163  164 1   
   166  163  168 1   
   167  164  165 1   
   168  164  166 1   
   169  164  167 1   
   170  170  171 1   
   171  170  172 1   
   172  173  174 1   
   173  173  175 1   
@<TRIPOS>SUBSTRUCTURE
     1 MOL         1 TEMP              0 ****  ****    0 ROOT
