@<TRIPOS>MOLECULE
MOL
  192   187     1     0     0
SMALL
resp


@<TRIPOS>ATOM
      1 C1         -4.1660   -4.7380   -2.5030 c3        1 MOL     -0.388908
      2 C2         -5.0610   -3.8420   -1.6210 c         1 MOL      0.791477
      3 O1         -4.6660   -3.3300   -0.5730 o         1 MOL     -0.645338
      4 H1         -4.7850   -5.4710   -3.0210 hc        1 MOL      0.099038
      5 H2         -3.6420   -4.1220   -3.2350 hc        1 MOL      0.099038
      6 H3         -3.4390   -5.2550   -1.8760 hc        1 MOL      0.099038
      7 N1         -6.2940   -3.5880   -2.0140 n         1 MOL     -0.537968
      8 C3         -7.1870   -2.4480   -1.6450 c3        1 MOL      0.092196
      9 C4         -6.3220   -1.1710   -1.5910 c         1 MOL      0.276225
     10 O2         -5.9030   -0.7220   -0.4900 o         1 MOL     -0.259197
     11 C5         -7.9050   -2.7580   -0.3310 c3        1 MOL      0.019423
     12 C6         -7.2270   -3.7320    0.6630 c         1 MOL      0.629382
     13 O3         -6.6230   -3.1210    1.6190 o         1 MOL     -0.679453
     14 O4         -7.5340   -4.9220    0.6300 o         1 MOL     -0.679453
     15 H4         -6.4940   -4.0380   -2.8920 hn        1 MOL      0.270238
     16 H5         -7.8920   -2.2820   -2.4550 h1        1 MOL      0.050715
     17 H6         -8.8780   -3.1710   -0.6080 hc        1 MOL     -0.020988
     18 H7         -8.0540   -1.8160    0.2010 hc        1 MOL     -0.020988
     19 N2         -5.8620   -0.7270   -2.7850 n         1 MOL     -0.434963
     20 C7         -5.0660    0.4850   -3.0860 c3        1 MOL      0.132572
     21 C8         -5.5750    1.8160   -2.5020 c         1 MOL      0.320784
     22 O5         -5.8050    2.7130   -3.3070 o         1 MOL     -0.567543
     23 C9         -3.5590    0.2170   -2.8740 c3        1 MOL      0.436257
     24 C10        -2.7320    1.4460   -3.4870 c3        1 MOL     -0.024058
     25 C11        -3.1730   -1.0890   -3.4600 c3        1 MOL     -0.266303
     26 C12        -2.8300    1.7740   -4.9540 c3        1 MOL     -0.416446
     27 H8         -6.1660   -1.3180   -3.5420 hn        1 MOL      0.257595
     28 H9         -5.1210    0.5780   -4.1710 h1        1 MOL      0.035679
     29 H10        -3.3030    0.2000   -1.8120 hc        1 MOL     -0.264293
     30 H11        -1.7020    1.0780   -3.4460 hc        1 MOL      0.113755
     31 H12        -2.8090    2.3700   -2.9290 hc        1 MOL      0.113755
     32 H13        -3.5280   -1.8350   -2.7540 hc        1 MOL      0.027157
     33 H14        -3.5450   -1.1860   -4.4890 hc        1 MOL      0.027157
     34 H15        -2.1070   -1.2670   -3.4520 hc        1 MOL      0.027157
     35 H16        -3.8320    2.1130   -5.2040 hc        1 MOL      0.090759
     36 H17        -2.0800    2.5530   -5.1060 hc        1 MOL      0.090759
     37 H18        -2.7320    0.8630   -5.5540 hc        1 MOL      0.090759
     38 N3         -5.8790    1.9490   -1.2030 n         1 MOL     -0.043768
     39 C13        -6.5260    3.1600   -0.6550 c3        1 MOL      0.249589
     40 C14        -5.8070    4.4810   -0.8460 c         1 MOL      0.371643
     41 O6         -6.3980    5.4750   -1.2670 o         1 MOL     -0.530452
     42 C15        -7.0610    2.9130    0.7370 c3        1 MOL     -0.130362
     43 C16        -7.7830    4.0930    1.4650 c         1 MOL      0.632611
     44 O7         -8.9290    3.9500    1.9030 o         1 MOL     -0.693487
     45 O8         -7.1460    5.1920    1.5330 o         1 MOL     -0.693487
     46 H19        -5.7490    1.1310   -0.6170 hn        1 MOL     -0.039457
     47 H20        -7.4390    3.2860   -1.2450 h1        1 MOL     -0.004944
     48 H21        -6.3060    2.4570    1.3670 hc        1 MOL     -0.004473
     49 H22        -7.6830    2.0300    0.6190 hc        1 MOL     -0.004473
     50 N4         -4.5470    4.6250   -0.5030 n         1 MOL     -0.373655
     51 C17        -3.7330    3.6260    0.0320 c3        1 MOL      0.234554
     52 C18        -2.5410    4.2970    0.7780 c         1 MOL      0.446293
     53 O9         -2.2000    5.4820    0.4740 o         1 MOL     -0.581774
     54 H23        -4.0830    5.5060   -0.6310 hn        1 MOL      0.268886
     55 H24        -3.2310    3.0050   -0.7190 h1        1 MOL     -0.048197
     56 H25        -4.2780    2.9600    0.6980 h1        1 MOL     -0.048197
     57 N5         -1.7360    3.6690    1.6630 n         1 MOL     -0.269235
     58 C19        -2.1490    2.5150    2.4300 c3        1 MOL      0.334646
     59 C20        -2.3450    1.2880    1.5610 c         1 MOL      0.181590
     60 O10        -3.4500    0.7930    1.3150 o         1 MOL     -0.353039
     61 C21        -3.2920    2.8560    3.3170 c3        1 MOL     -0.401590
     62 C22        -3.5350    1.9600    4.5140 c         1 MOL      0.844051
     63 O11        -4.6640    1.8540    5.0290 o         1 MOL     -0.731495
     64 O12        -2.5820    1.3240    5.0420 o         1 MOL     -0.731495
     65 H26        -0.9240    4.1820    1.9540 hn        1 MOL      0.208340
     66 H27        -1.3660    2.2360    3.1370 h1        1 MOL     -0.056251
     67 H28        -4.2180    2.8910    2.7340 hc        1 MOL      0.077891
     68 H29        -3.0520    3.8340    3.7260 hc        1 MOL      0.077891
     69 N6         -1.2610    0.7620    1.0560 n         1 MOL     -0.135746
     70 C23         0.2110    1.1130    1.0530 c3        1 MOL     -0.196307
     71 C24         0.5060    2.2780    0.1120 c         1 MOL      0.508198
     72 O13        -0.2650    2.6660   -0.7450 o         1 MOL     -0.481551
     73 H30        -1.4700   -0.0530    0.4910 hn        1 MOL      0.216463
     74 H31         0.7380    0.2290    0.6700 h1        1 MOL      0.095072
     75 H32         0.5530    1.3260    2.0620 h1        1 MOL      0.095072
     76 N7          1.6060    2.9670    0.4610 n         1 MOL     -0.321271
     77 C25         2.1580    4.1500   -0.1940 c3        1 MOL     -0.038767
     78 C26         2.4650    3.8820   -1.7250 c         1 MOL      0.491109
     79 O14         1.9770    4.4960   -2.6800 o         1 MOL     -0.483518
     80 C27         3.4070    4.6870    0.5220 c3        1 MOL      0.167376
     81 C28         3.6180    6.1380    0.1500 c3        1 MOL     -0.310625
     82 C29         4.9660    6.5760    0.7220 c         1 MOL      0.675668
     83 N8          5.1150    6.7080    2.0650 n         1 MOL     -0.834915
     84 O15         6.0130    6.7180    0.0070 o         1 MOL     -0.564042
     85 H33         1.9540    2.6390    1.3490 hn        1 MOL      0.207785
     86 H34         1.2850    4.7870   -0.2070 h1        1 MOL      0.084943
     87 H35         4.2610    4.0610    0.2870 hc        1 MOL     -0.037385
     88 H36         3.2690    4.7640    1.6090 hc        1 MOL     -0.037385
     89 H37         2.8450    6.7920    0.5290 hc        1 MOL      0.108959
     90 H38         3.6620    6.2350   -0.9370 hc        1 MOL      0.108959
     91 H39         4.3200    6.6030    2.6800 hn        1 MOL      0.383087
     92 H40         6.0240    6.9000    2.4560 hn        1 MOL      0.383087
     93 N9          3.2430    2.7810   -1.8540 n         1 MOL     -0.323593
     94 C30         3.6640    2.1900   -3.1480 c3        1 MOL     -0.188080
     95 C31         5.1300    1.7240   -3.0930 c         1 MOL      0.614696
     96 O16         5.7050    1.6070   -4.1320 o         1 MOL     -0.530488
     97 C32         2.6830    1.0870   -3.5730 c3        1 MOL      0.006861
     98 C33         1.3000    1.5570   -3.8620 c3        1 MOL     -0.138642
     99 C34         2.5140   -0.0220   -2.5130 c3        1 MOL     -0.138642
    100 H41         3.5810    2.3670   -1.0030 hn        1 MOL      0.201442
    101 H42         3.6170    3.0100   -3.8640 h1        1 MOL      0.157695
    102 H43         3.0630    0.7010   -4.5170 hc        1 MOL      0.048117
    103 H44         1.2000    2.2790   -4.6740 hc        1 MOL      0.035834
    104 H45         0.6920    0.7310   -4.2290 hc        1 MOL      0.035834
    105 H46         0.8760    2.1090   -3.0230 hc        1 MOL      0.035834
    106 H47         1.9840    0.4220   -1.6630 hc        1 MOL      0.035834
    107 H48         1.9890   -0.9100   -2.8600 hc        1 MOL      0.035834
    108 H49         3.4560   -0.3380   -2.0520 hc        1 MOL      0.035834
    109 N10         5.8100    1.5870   -1.9340 n         1 MOL     -0.505023
    110 C35         7.1750    1.0370   -1.8190 c3        1 MOL      0.386643
    111 C36         7.0900   -0.5280   -1.5680 c         1 MOL      0.301576
    112 O17         7.8880   -1.1880   -2.2130 o         1 MOL     -0.504516
    113 C37         7.8200    1.8510   -0.7140 c3        1 MOL     -0.324375
    114 C38         7.7580    3.3660   -0.9350 c         1 MOL      0.641907
    115 N11         7.0240    4.0320   -0.1100 n         1 MOL     -0.747145
    116 O18         8.3840    3.8840   -1.8660 o         1 MOL     -0.559512
    117 H50         5.2440    1.5500   -1.0930 hn        1 MOL      0.319340
    118 H51         7.6910    1.1830   -2.7640 h1        1 MOL      0.026206
    119 H52         8.8350    1.5040   -0.5410 hc        1 MOL      0.044340
    120 H53         7.2730    1.5490    0.1790 hc        1 MOL      0.044340
    121 H54         6.6570    3.6230    0.7380 hn        1 MOL      0.359369
    122 H55         7.0580    5.0250   -0.2670 hn        1 MOL      0.359369
    123 N12         6.1260   -1.0900   -0.8920 n         1 MOL     -0.187241
    124 C39         6.1360   -2.5520   -0.5370 c3        1 MOL      0.036687
    125 C40         4.7910   -2.9600    0.1850 c         1 MOL      0.531623
    126 O19         3.8300   -2.2530    0.2510 o         1 MOL     -0.440576
    127 C41         7.2850   -2.9620    0.4100 c3        1 MOL     -0.345780
    128 C42         7.6300   -1.8540    1.3610 ca        1 MOL      0.025734
    129 C43         8.7570   -1.0220    1.1100 ca        1 MOL     -0.097327
    130 C44         6.8180   -1.4670    2.4550 ca        1 MOL     -0.097327
    131 C45         9.0880    0.0230    1.9670 ca        1 MOL     -0.263031
    132 C46         7.1330   -0.3900    3.3110 ca        1 MOL     -0.263031
    133 C47         8.3160    0.3480    3.0670 ca        1 MOL      0.290662
    134 O20         8.6890    1.2780    3.9310 oh        1 MOL     -0.423907
    135 H56         5.3330   -0.5410   -0.5710 hn        1 MOL      0.174636
    136 H57         6.1450   -3.1780   -1.4350 h1        1 MOL      0.082582
    137 H58         8.0940   -3.0410   -0.3160 hc        1 MOL      0.138471
    138 H59         7.1170   -3.8930    0.9530 hc        1 MOL      0.138471
    139 H60         9.4590   -1.2120    0.3240 ha        1 MOL      0.102092
    140 H61         5.8830   -1.9730    2.6800 ha        1 MOL      0.102092
    141 H62         9.9030    0.7030    1.7590 ha        1 MOL      0.163466
    142 H63         6.5230   -0.1310    4.1700 ha        1 MOL      0.163466
    143 H64         9.4220    1.7760    3.5700 ho        1 MOL      0.301856
    144 N13         4.6960   -4.2530    0.4570 n         1 MOL     -0.650464
    145 C48         3.6120   -5.0930    1.0120 c3        1 MOL      0.074599
    146 C49         2.3480   -5.3620    0.1040 c         1 MOL      0.284575
    147 O21         1.7520   -6.4910    0.0950 o         1 MOL     -0.506487
    148 C50         3.1480   -4.5250    2.3820 c3        1 MOL     -0.023758
    149 C51         4.2510   -4.4540    3.4670 c3        1 MOL     -0.007102
    150 C52         3.8640   -3.6480    4.6490 c         1 MOL      0.678594
    151 O22         4.0180   -4.1000    5.7760 o         1 MOL     -0.706814
    152 O23         3.6560   -2.4040    4.4900 o         1 MOL     -0.706814
    153 H65         5.5870   -4.7250    0.4000 hn        1 MOL      0.334578
    154 H66         3.9980   -6.0960    1.2380 h1        1 MOL      0.078533
    155 H67         2.3250   -5.1190    2.7710 hc        1 MOL      0.015397
    156 H68         2.7570   -3.5120    2.2560 hc        1 MOL      0.015397
    157 H69         5.2190   -4.1570    3.0670 hc        1 MOL     -0.018751
    158 H70         4.3810   -5.4740    3.8410 hc        1 MOL     -0.018751
    159 N14         1.9290   -4.4710   -0.7680 n         1 MOL     -0.038859
    160 C53         0.6610   -4.7130   -1.4830 c3        1 MOL     -0.050552
    161 C54         0.8980   -5.4450   -2.8200 c         1 MOL      0.364293
    162 O24         0.3120   -6.4590   -3.2670 o         1 MOL     -0.535357
    163 C55         0.0150   -3.4300   -1.8660 c3        1 MOL      0.061189
    164 C56        -0.2840   -2.3990   -0.8240 c3        1 MOL      0.448639
    165 C57        -1.3870   -2.7060    0.1660 c         1 MOL      0.589058
    166 O25        -1.2760   -3.7520    0.7970 o         1 MOL     -0.672656
    167 O26        -2.2830   -1.8550    0.3300 o         1 MOL     -0.672656
    168 H71         2.3640   -3.5500   -0.8210 hn        1 MOL      0.190919
    169 H72        -0.0190   -5.2780   -0.8420 h1        1 MOL      0.151873
    170 H73        -0.8560   -3.6660   -2.4770 hc        1 MOL     -0.033848
    171 H74         0.6310   -2.9370   -2.6110 hc        1 MOL     -0.033848
    172 H75        -0.4540   -1.4480   -1.3250 hc        1 MOL     -0.169215
    173 H76         0.6510   -2.2560   -0.2780 hc        1 MOL     -0.169215
    174 N15         2.0790   -5.2060   -3.3700 n         1 MOL     -0.145853
    175 C58         2.8200   -6.0630   -4.3220 c3        1 MOL     -0.280608
    176 H77         2.2430   -6.9660   -4.5220 h1        1 MOL      0.115761
    177 H78         2.9790   -5.5200   -5.2530 h1        1 MOL      0.115761
    178 H79         3.7830   -6.3370   -3.8920 h1        1 MOL      0.115761
    179 H80         2.5150   -4.4560   -2.8560 hn        1 MOL      0.126156
    180 Ca1        -4.5540   -1.6170    1.5330 Ca        1 MOL      1.695529
    181 O27        -3.3070   -3.9160    2.4170 oh        1 MOL     -0.844942
    182 H81        -2.5060   -3.8460    1.8980 ho        1 MOL      0.400853
    183 H82        -3.0520   -4.4760    3.1590 ho        1 MOL      0.400853
    184 O28        -5.1770   -1.9660    4.2980 oh        1 MOL     -0.844942
    185 H83        -5.8820   -2.6050    4.3600 ho        1 MOL      0.400853
    186 H84        -5.1270   -1.5750    5.1770 ho        1 MOL      0.400853
    187 O29        -2.5840   -1.0230    3.4110 oh        1 MOL     -0.844942
    188 H85        -2.6020   -0.6310    4.2900 ho        1 MOL      0.400853
    189 H86        -1.8260   -1.6080    3.4270 ho        1 MOL      0.400853
    190 O30        -6.7780   -0.3940    2.3260 oh        1 MOL     -0.844942
    191 H87        -6.7580    0.3390    2.9320 ho        1 MOL      0.400853
    192 H88        -7.6700   -0.7360    2.3830 ho        1 MOL      0.400853
@<TRIPOS>BOND
     1    1    2 1   
     2    1    4 1   
     3    1    5 1   
     4    1    6 1   
     5    2    3 2   
     6    2    7 1   
     7    7    8 1   
     8    7   15 1   
     9    8    9 1   
    10    8   11 1   
    11    8   16 1   
    12    9   10 2   
    13    9   19 1   
    14   11   12 1   
    15   11   17 1   
    16   11   18 1   
    17   12   13 1   
    18   12   14 1   
    19   19   20 1   
    20   19   27 1   
    21   20   21 1   
    22   20   23 1   
    23   20   28 1   
    24   21   22 2   
    25   21   38 1   
    26   23   24 1   
    27   23   25 1   
    28   23   29 1   
    29   24   26 1   
    30   24   30 1   
    31   24   31 1   
    32   25   32 1   
    33   25   33 1   
    34   25   34 1   
    35   26   35 1   
    36   26   36 1   
    37   26   37 1   
    38   38   39 1   
    39   38   46 1   
    40   39   40 1   
    41   39   42 1   
    42   39   47 1   
    43   40   41 2   
    44   40   50 1   
    45   42   43 1   
    46   42   48 1   
    47   42   49 1   
    48   43   44 1   
    49   43   45 1   
    50   50   51 1   
    51   50   54 1   
    52   51   52 1   
    53   51   55 1   
    54   51   56 1   
    55   52   53 2   
    56   52   57 1   
    57   57   58 1   
    58   57   65 1   
    59   58   59 1   
    60   58   61 1   
    61   58   66 1   
    62   59   60 2   
    63   59   69 1   
    64   61   62 1   
    65   61   67 1   
    66   61   68 1   
    67   62   63 1   
    68   62   64 1   
    69   69   70 1   
    70   69   73 1   
    71   70   71 1   
    72   70   74 1   
    73   70   75 1   
    74   71   72 2   
    75   71   76 1   
    76   76   77 1   
    77   76   85 1   
    78   77   78 1   
    79   77   80 1   
    80   77   86 1   
    81   78   79 2   
    82   78   93 1   
    83   80   81 1   
    84   80   87 1   
    85   80   88 1   
    86   81   82 1   
    87   81   89 1   
    88   81   90 1   
    89   82   83 1   
    90   82   84 2   
    91   83   91 1   
    92   83   92 1   
    93   93   94 1   
    94   93  100 1   
    95   94   95 1   
    96   94   97 1   
    97   94  101 1   
    98   95   96 2   
    99   95  109 1   
   100   97   98 1   
   101   97   99 1   
   102   97  102 1   
   103   98  103 1   
   104   98  104 1   
   105   98  105 1   
   106   99  106 1   
   107   99  107 1   
   108   99  108 1   
   109  109  110 1   
   110  109  117 1   
   111  110  111 1   
   112  110  113 1   
   113  110  118 1   
   114  111  112 2   
   115  111  123 1   
   116  113  114 1   
   117  113  119 1   
   118  113  120 1   
   119  114  115 1   
   120  114  116 2   
   121  115  121 1   
   122  115  122 1   
   123  123  124 1   
   124  123  135 1   
   125  124  125 1   
   126  124  127 1   
   127  124  136 1   
   128  125  126 2   
   129  125  144 1   
   130  127  128 1   
   131  127  137 1   
   132  127  138 1   
   133  128  129 ar  
   134  128  130 ar  
   135  129  131 ar  
   136  129  139 1   
   137  130  132 ar  
   138  130  140 1   
   139  131  133 ar  
   140  131  141 1   
   141  132  133 ar  
   142  132  142 1   
   143  133  134 1   
   144  134  143 1   
   145  144  145 1   
   146  144  153 1   
   147  145  146 1   
   148  145  148 1   
   149  145  154 1   
   150  146  147 2   
   151  146  159 1   
   152  148  149 1   
   153  148  155 1   
   154  148  156 1   
   155  149  150 1   
   156  149  157 1   
   157  149  158 1   
   158  150  151 1   
   159  150  152 1   
   160  159  160 1   
   161  159  168 1   
   162  160  161 1   
   163  160  163 1   
   164  160  169 1   
   165  161  162 2   
   166  161  174 1   
   167  163  164 1   
   168  163  170 1   
   169  163  171 1   
   170  164  165 1   
   171  164  172 1   
   172  164  173 1   
   173  165  166 1   
   174  165  167 1   
   175  174  175 1   
   176  174  179 1   
   177  175  176 1   
   178  175  177 1   
   179  175  178 1   
   180  181  182 1   
   181  181  183 1   
   182  184  185 1   
   183  184  186 1   
   184  187  188 1   
   185  187  189 1   
   186  190  191 1   
   187  190  192 1   
@<TRIPOS>SUBSTRUCTURE
     1 MOL         1 TEMP              0 ****  ****    0 ROOT
