@<TRIPOS>MOLECULE
MOL
  191   184     1     0     0
SMALL
resp


@<TRIPOS>ATOM
      1 C1         -1.6510   -0.6640   -3.6180 c3        1 MOL     -0.498865
      2 C2         -2.6470   -0.4980   -2.4730 c         1 MOL      0.810148
      3 O1         -2.3770    0.2340   -1.5210 o         1 MOL     -0.694903
      4 H1         -1.5940   -1.7150   -3.9000 hc        1 MOL      0.130094
      5 H2         -1.9810   -0.0760   -4.4760 hc        1 MOL      0.130094
      6 H3         -0.6670   -0.3210   -3.2980 hc        1 MOL      0.130094
      7 N1         -3.7650   -1.2330   -2.6340 n         1 MOL     -0.524801
      8 C3         -5.0100   -1.0530   -1.7580 c3        1 MOL     -0.066726
      9 C4         -5.4650   -2.4040   -1.1280 c         1 MOL      0.235042
     10 O2         -6.6220   -2.5230   -0.6540 o         1 MOL     -0.353165
     11 C5         -6.1560   -0.3100   -2.4580 c3        1 MOL      0.078324
     12 C6         -6.6420   -0.7510   -3.8750 c         1 MOL      0.609845
     13 O3         -6.2990   -1.8760   -4.2470 o         1 MOL     -0.658438
     14 O4         -7.2840    0.1170   -4.5450 o         1 MOL     -0.658438
     15 H4         -3.7870   -1.8260   -3.4510 hn        1 MOL      0.289042
     16 H5         -4.6890   -0.3170   -1.0160 h1        1 MOL      0.155626
     17 H6         -5.8520    0.7200   -2.5820 hc        1 MOL     -0.007316
     18 H7         -7.0140   -0.2390   -1.7950 hc        1 MOL     -0.007316
     19 N2         -4.4690   -3.3210   -1.0590 n         1 MOL     -0.095977
     20 C7         -4.5080   -4.6050   -0.2800 c3        1 MOL      0.017717
     21 C8         -4.9600   -4.3680    1.1590 c         1 MOL      0.554904
     22 O5         -6.0190   -4.7710    1.6090 o         1 MOL     -0.549271
     23 C9         -5.1940   -5.7670   -1.0330 c3        1 MOL     -0.325398
     24 C10        -4.3510   -6.2310   -2.2000 c3        1 MOL      0.313225
     25 C11        -4.8840   -7.5300   -2.8050 c3        1 MOL      0.120727
     26 C12        -4.4110   -7.8660   -4.2310 c3        1 MOL     -0.071553
     27 N3         -2.9520   -8.2190   -4.1960 n4        1 MOL     -0.344870
     28 H8         -3.6170   -2.9480   -1.4550 hn        1 MOL      0.127149
     29 H9         -3.4800   -4.9380   -0.2010 h1        1 MOL      0.059667
     30 H10        -6.2090   -5.4670   -1.3090 hc        1 MOL      0.115481
     31 H11        -5.1740   -6.5740   -0.3050 hc        1 MOL      0.115481
     32 H12        -3.2870   -6.3490   -1.9610 hc        1 MOL     -0.085661
     33 H13        -4.3340   -5.4730   -2.9860 hc        1 MOL     -0.085661
     34 H14        -5.9650   -7.4910   -2.7040 hc        1 MOL     -0.027819
     35 H15        -4.5140   -8.3130   -2.1460 hc        1 MOL     -0.027819
     36 H16        -4.6400   -7.0990   -4.9660 hx        1 MOL      0.119038
     37 H17        -4.9630   -8.7470   -4.5740 hx        1 MOL      0.119038
     38 H18        -2.7370   -8.9670   -3.5630 hn        1 MOL      0.303038
     39 H19        -2.6590   -8.4130   -5.1440 hn        1 MOL      0.303038
     40 H20        -2.3460   -7.4550   -3.9100 hn        1 MOL      0.303038
     41 N4         -4.2630   -3.5020    1.8390 n         1 MOL     -0.367289
     42 C13        -4.6590   -2.9260    3.1340 c3        1 MOL     -0.030805
     43 C14        -5.3960   -1.5770    2.8640 c         1 MOL      0.540101
     44 O6         -4.8130   -0.7140    2.2180 o         1 MOL     -0.512460
     45 C15        -3.3920   -2.8490    4.0210 c3        1 MOL     -0.387638
     46 C16        -2.1620   -2.0730    3.4480 c         1 MOL      0.866547
     47 O7         -1.4540   -2.5330    2.5620 o         1 MOL     -0.761349
     48 O8         -1.8900   -0.9610    3.8850 o         1 MOL     -0.761349
     49 H21        -3.4160   -3.1100    1.4520 hn        1 MOL      0.199227
     50 H22        -5.3070   -3.6090    3.6890 h1        1 MOL      0.116655
     51 H23        -3.0710   -3.8380    4.3260 hc        1 MOL      0.098526
     52 H24        -3.6900   -2.3770    4.9580 hc        1 MOL      0.098526
     53 N5         -6.6140   -1.4090    3.3410 n         1 MOL     -0.313966
     54 C17        -7.4010   -0.1880    3.1040 c3        1 MOL     -0.087683
     55 C18        -8.1090   -0.1820    1.7810 c         1 MOL      0.637453
     56 O9         -8.7080   -1.1970    1.3160 o         1 MOL     -0.557970
     57 H25        -6.9850   -2.0480    4.0300 hn        1 MOL      0.284362
     58 H26        -6.8010    0.7200    3.1020 h1        1 MOL      0.047513
     59 H27        -8.2070   -0.2590    3.8270 h1        1 MOL      0.047513
     60 N6         -8.1610    0.8720    0.9800 n         1 MOL     -0.565319
     61 C19        -7.4940    2.1500    1.0780 c3        1 MOL      0.215050
     62 C20        -7.1550    2.5910   -0.3730 c         1 MOL      0.311574
     63 O10        -8.0450    2.7290   -1.2360 o         1 MOL     -0.489460
     64 C21        -8.5030    3.1220    1.6800 c3        1 MOL     -0.311208
     65 C22        -8.0330    4.5700    1.7210 c         1 MOL      0.676183
     66 N7         -7.6740    5.0530    2.8660 n         1 MOL     -0.782857
     67 O11        -7.9750    5.2860    0.7010 o         1 MOL     -0.545039
     68 H28        -8.7290    0.7940    0.1560 hn        1 MOL      0.354201
     69 H29        -6.5780    2.1160    1.6690 h1        1 MOL      0.059553
     70 H30        -8.7910    2.7990    2.6860 hc        1 MOL      0.102114
     71 H31        -9.4060    3.1950    1.0730 hc        1 MOL      0.102114
     72 H32        -7.8900    4.6430    3.7670 hn        1 MOL      0.351016
     73 H33        -7.2780    5.9760    2.8730 hn        1 MOL      0.351016
     74 N8         -5.9640    2.9030   -0.6840 n         1 MOL     -0.210638
     75 C23        -4.7080    2.7840    0.1180 c3        1 MOL      0.001873
     76 C24        -3.5260    3.3300   -0.6430 c         1 MOL      0.568307
     77 O12        -3.6440    4.1140   -1.5930 o         1 MOL     -0.541303
     78 H34        -5.9010    3.3700   -1.5720 hn        1 MOL      0.264771
     79 H35        -4.5680    1.7440    0.4200 h1        1 MOL      0.012400
     80 H36        -4.8780    3.4170    0.9900 h1        1 MOL      0.012400
     81 N9         -2.3160    3.0070   -0.2180 n         1 MOL     -0.289028
     82 C25        -1.0120    3.3940   -0.8520 c3        1 MOL      0.096963
     83 C26         0.2190    2.4380   -0.6000 c         1 MOL      0.669225
     84 O13         0.2730    1.7880    0.4380 o         1 MOL     -0.567417
     85 C27        -0.7190    4.7700   -0.2750 c3        1 MOL     -0.360807
     86 C28         0.3940    5.5990   -0.9880 ca        1 MOL      0.107018
     87 C29         1.6680    5.6560   -0.4630 ca        1 MOL     -0.126145
     88 C30         0.1090    6.1080   -2.2580 ca        1 MOL     -0.126145
     89 C31         2.6700    6.4710   -1.0750 ca        1 MOL     -0.340947
     90 C32         1.0280    6.9020   -2.9200 ca        1 MOL     -0.340947
     91 C33         2.3190    7.1250   -2.3290 ca        1 MOL      0.377463
     92 O14         3.2720    7.8020   -2.9600 oh        1 MOL     -0.502446
     93 H37        -2.1910    2.3490    0.5450 hn        1 MOL      0.094805
     94 H38        -1.2000    3.4200   -1.9230 h1        1 MOL      0.088506
     95 H39        -0.4170    4.6290    0.7560 hc        1 MOL      0.109162
     96 H40        -1.6080    5.3960   -0.3490 hc        1 MOL      0.109162
     97 H41         1.9410    5.1930    0.4750 ha        1 MOL      0.150712
     98 H42        -0.8470    5.9410   -2.7300 ha        1 MOL      0.150712
     99 H43         3.5720    6.7120   -0.5330 ha        1 MOL      0.165231
    100 H44         0.8170    7.3260   -3.8920 ha        1 MOL      0.165231
    101 H45         2.9530    8.3180   -3.7050 ho        1 MOL      0.391770
    102 N10         1.2190    2.4170   -1.4380 n         1 MOL     -0.589584
    103 C34         2.5430    1.6410   -1.3470 c3        1 MOL      0.242756
    104 C35         3.4310    2.0000   -0.0870 c         1 MOL      0.313358
    105 O15         3.2700    3.0980    0.4170 o         1 MOL     -0.523787
    106 C36         3.2860    1.8210   -2.6940 c3        1 MOL      0.027615
    107 C37         3.9220    3.2300   -2.7120 c3        1 MOL      0.247301
    108 C38         4.3850    0.7360   -2.8960 c3        1 MOL     -0.322538
    109 C39         4.4090    3.4710   -4.2060 c3        1 MOL     -0.337423
    110 H46         1.2460    3.2080   -2.0630 hn        1 MOL      0.258540
    111 H47         2.2630    0.6190   -1.1270 h1        1 MOL      0.026031
    112 H48         2.5520    1.7610   -3.4880 hc        1 MOL      0.032277
    113 H49         4.7630    3.2050   -2.0210 hc        1 MOL     -0.012866
    114 H50         3.2180    3.9840   -2.3760 hc        1 MOL     -0.012866
    115 H51         3.9640   -0.2260   -2.6140 hc        1 MOL      0.079332
    116 H52         4.6180    0.5850   -3.9550 hc        1 MOL      0.079332
    117 H53         5.1970    0.8290   -2.1750 hc        1 MOL      0.079332
    118 H54         3.6110    3.2660   -4.9210 hc        1 MOL      0.071662
    119 H55         4.7610    4.4990   -4.3200 hc        1 MOL      0.071662
    120 H56         5.2080    2.7510   -4.3920 hc        1 MOL      0.071662
    121 N11         4.2840    1.1140    0.3150 n         1 MOL     -0.201874
    122 C40         5.4650    1.5230    1.2190 c3        1 MOL     -0.043894
    123 C41         6.1100    0.3830    2.0230 c         1 MOL      0.501315
    124 O16         5.7940   -0.7980    1.9230 o         1 MOL     -0.391031
    125 C42         6.5590    2.2720    0.4030 c3        1 MOL     -0.043564
    126 O17         6.9980    1.3950   -0.6220 oh        1 MOL     -0.491072
    127 H57         4.2290    0.1510    0.0300 hn        1 MOL      0.208924
    128 H58         5.1530    2.3300    1.8760 h1        1 MOL      0.051055
    129 H59         7.3800    2.6080    1.0300 h1        1 MOL      0.092148
    130 H60         6.1280    3.1870   -0.0040 h1        1 MOL      0.092148
    131 H61         7.9250    1.1710   -0.5060 ho        1 MOL      0.380372
    132 N12         7.0170    0.8220    2.9100 n         1 MOL     -0.587667
    133 C43         7.7700   -0.1670    3.7170 c3        1 MOL      0.218390
    134 C44         8.4790   -1.3210    3.0180 c         1 MOL      0.482590
    135 O18         7.8870   -2.4280    2.9200 o         1 MOL     -0.470355
    136 C45         6.8000   -0.6800    4.8460 c3        1 MOL     -0.453967
    137 H62         7.1220    1.8090    3.0880 hn        1 MOL      0.349380
    138 H63         8.5530    0.4380    4.1680 h1        1 MOL      0.019544
    139 H64         7.4030   -1.1670    5.6110 hc        1 MOL      0.137600
    140 H65         6.2620    0.1830    5.2560 hc        1 MOL      0.137600
    141 H66         6.1670   -1.4510    4.4110 hc        1 MOL      0.137600
    142 N13         9.5500   -1.0130    2.2730 n         1 MOL     -0.623577
    143 C46        10.2850   -1.9690    1.3560 c3        1 MOL      0.245329
    144 C47         9.6310   -2.4690    0.0480 c         1 MOL      0.323930
    145 O19        10.3130   -2.9730   -0.7970 o         1 MOL     -0.475270
    146 C48        10.8150   -3.2100    2.1970 c3        1 MOL     -0.133454
    147 H67         9.9960   -0.1750    2.6140 hn        1 MOL      0.320126
    148 H68        11.1940   -1.4880    0.9990 h1        1 MOL      0.043496
    149 H69        11.6630   -3.6000    1.6320 hc        1 MOL      0.051593
    150 H70        11.2070   -2.9250    3.1720 hc        1 MOL      0.051593
    151 H71        10.1410   -4.0630    2.2540 hc        1 MOL      0.051593
    152 N14         8.3440   -2.1720   -0.1290 n         1 MOL     -0.093344
    153 C49         7.5520   -2.4610   -1.3450 c3        1 MOL     -0.187483
    154 C50         7.9990   -1.8830   -2.6890 c         1 MOL      0.471992
    155 O20         8.1100   -2.6670   -3.6290 o         1 MOL     -0.505685
    156 C51         6.0740   -2.2210   -0.9740 c3        1 MOL      0.181145
    157 C52         5.0180   -2.9080   -1.6810 c3        1 MOL     -0.465963
    158 C53         3.6550   -2.7820   -0.9470 c         1 MOL      0.692327
    159 O21         3.2750   -1.6390   -0.5990 o         1 MOL     -0.676277
    160 O22         2.8940   -3.8050   -0.6900 o         1 MOL     -0.676277
    161 H72         7.8680   -1.8110    0.6860 hn        1 MOL      0.052832
    162 H73         7.7010   -3.5290   -1.4870 h1        1 MOL      0.128094
    163 H74         5.9360   -1.1430   -1.0530 hc        1 MOL      0.098732
    164 H75         5.9960   -2.5150    0.0700 hc        1 MOL      0.098732
    165 H76         5.2610   -3.9640   -1.6720 hc        1 MOL      0.100813
    166 H77         4.9310   -2.4770   -2.6740 hc        1 MOL      0.100813
    167 N15         8.4720   -0.6260   -2.7170 n         1 MOL     -0.151001
    168 C54         9.3230   -0.1510   -3.8030 c3        1 MOL     -0.438561
    169 H78         9.8530    0.7460   -3.4830 h1        1 MOL      0.159899
    170 H79        10.0450   -0.9240   -4.0650 h1        1 MOL      0.159899
    171 H80         8.7080    0.0830   -4.6730 h1        1 MOL      0.159899
    172 H81         8.3570   -0.0340   -1.9070 hn        1 MOL      0.141279
    173 Ca1         0.0170    0.0320    2.4230 Ca        1 MOL      1.833011
    174 O23        -1.1840    2.4320    3.1400 oh        1 MOL     -0.859312
    175 H82        -2.1230    2.3650    3.2760 ho        1 MOL      0.418167
    176 H83        -1.0160    3.3730    3.1190 ho        1 MOL      0.418167
    177 O24         0.6980    0.3380    5.0930 oh        1 MOL     -0.859312
    178 H84         1.2290    1.1230    5.0660 ho        1 MOL      0.418167
    179 H85         0.4360    0.2430    6.0130 ho        1 MOL      0.418167
    180 O25         1.6360    2.1160    2.7910 oh        1 MOL     -0.859312
    181 O26        -2.3370    0.0690    1.0860 oh        1 MOL     -0.859312
    182 H86         1.8590    2.4870    3.6470 ho        1 MOL      0.418167
    183 H87        -2.4770    0.0350    0.1420 ho        1 MOL      0.418167
    184 H88         2.0280    2.7200    2.1610 ho        1 MOL      0.418167
    185 H89        -3.1880   -0.1840    1.4620 ho        1 MOL      0.418167
    186 O27         1.8620   -1.7790    3.1860 oh        1 MOL     -0.859312
    187 H90         1.5370   -2.3780    3.8600 ho        1 MOL      0.418167
    188 H91         2.7070   -2.1450    2.9200 ho        1 MOL      0.418167
    189 O28         0.7070   -1.4080    0.3250 oh        1 MOL     -0.859312
    190 H92         1.5320   -1.3670   -0.1740 ho        1 MOL      0.418167
    191 H93         0.2680   -2.1800   -0.0130 ho        1 MOL      0.418167
@<TRIPOS>BOND
     1    1    2 1   
     2    1    4 1   
     3    1    5 1   
     4    1    6 1   
     5    2    3 2   
     6    2    7 1   
     7    7    8 1   
     8    7   15 1   
     9    8    9 1   
    10    8   11 1   
    11    8   16 1   
    12    9   10 2   
    13    9   19 1   
    14   11   12 1   
    15   11   17 1   
    16   11   18 1   
    17   12   13 1   
    18   12   14 1   
    19   19   20 1   
    20   19   28 1   
    21   20   21 1   
    22   20   23 1   
    23   20   29 1   
    24   21   22 2   
    25   21   41 1   
    26   23   24 1   
    27   23   30 1   
    28   23   31 1   
    29   24   25 1   
    30   24   32 1   
    31   24   33 1   
    32   25   26 1   
    33   25   34 1   
    34   25   35 1   
    35   26   27 1   
    36   26   36 1   
    37   26   37 1   
    38   27   38 1   
    39   27   39 1   
    40   27   40 1   
    41   41   42 1   
    42   41   49 1   
    43   42   43 1   
    44   42   45 1   
    45   42   50 1   
    46   43   44 2   
    47   43   53 1   
    48   45   46 1   
    49   45   51 1   
    50   45   52 1   
    51   46   47 1   
    52   46   48 1   
    53   53   54 1   
    54   53   57 1   
    55   54   55 1   
    56   54   58 1   
    57   54   59 1   
    58   55   56 2   
    59   55   60 1   
    60   60   61 1   
    61   60   68 1   
    62   61   62 1   
    63   61   64 1   
    64   61   69 1   
    65   62   63 2   
    66   62   74 1   
    67   64   65 1   
    68   64   70 1   
    69   64   71 1   
    70   65   66 1   
    71   65   67 2   
    72   66   72 1   
    73   66   73 1   
    74   74   75 1   
    75   74   78 1   
    76   75   76 1   
    77   75   79 1   
    78   75   80 1   
    79   76   77 2   
    80   76   81 1   
    81   81   82 1   
    82   81   93 1   
    83   82   83 1   
    84   82   85 1   
    85   82   94 1   
    86   83   84 2   
    87   83  102 1   
    88   85   86 1   
    89   85   95 1   
    90   85   96 1   
    91   86   87 ar  
    92   86   88 ar  
    93   87   89 ar  
    94   87   97 1   
    95   88   90 ar  
    96   88   98 1   
    97   89   91 ar  
    98   89   99 1   
    99   90   91 ar  
   100   90  100 1   
   101   91   92 1   
   102   92  101 1   
   103  102  103 1   
   104  102  110 1   
   105  103  104 1   
   106  103  106 1   
   107  103  111 1   
   108  104  105 2   
   109  104  121 1   
   110  106  107 1   
   111  106  108 1   
   112  106  112 1   
   113  107  109 1   
   114  107  113 1   
   115  107  114 1   
   116  108  115 1   
   117  108  116 1   
   118  108  117 1   
   119  109  118 1   
   120  109  119 1   
   121  109  120 1   
   122  121  122 1   
   123  121  127 1   
   124  122  123 1   
   125  122  125 1   
   126  122  128 1   
   127  123  124 2   
   128  123  132 1   
   129  125  126 1   
   130  125  129 1   
   131  125  130 1   
   132  126  131 1   
   133  132  133 1   
   134  132  137 1   
   135  133  134 1   
   136  133  136 1   
   137  133  138 1   
   138  134  135 2   
   139  134  142 1   
   140  136  139 1   
   141  136  140 1   
   142  136  141 1   
   143  142  143 1   
   144  142  147 1   
   145  143  144 1   
   146  143  146 1   
   147  143  148 1   
   148  144  145 2   
   149  144  152 1   
   150  146  149 1   
   151  146  150 1   
   152  146  151 1   
   153  152  153 1   
   154  152  161 1   
   155  153  154 1   
   156  153  156 1   
   157  153  162 1   
   158  154  155 2   
   159  154  167 1   
   160  156  157 1   
   161  156  163 1   
   162  156  164 1   
   163  157  158 1   
   164  157  165 1   
   165  157  166 1   
   166  158  159 1   
   167  158  160 1   
   168  167  168 1   
   169  167  172 1   
   170  168  169 1   
   171  168  170 1   
   172  168  171 1   
   173  174  175 1   
   174  174  176 1   
   175  177  178 1   
   176  177  179 1   
   177  180  182 1   
   178  180  184 1   
   179  181  183 1   
   180  181  185 1   
   181  186  187 1   
   182  186  188 1   
   183  189  190 1   
   184  189  191 1   
@<TRIPOS>SUBSTRUCTURE
     1 MOL         1 TEMP              0 ****  ****    0 ROOT
