@<TRIPOS>MOLECULE
MOL
  192   187     1     0     0
SMALL
resp


@<TRIPOS>ATOM
      1 C1          5.1740    5.4550    2.8360 c3        1 MOL      0.114023
      2 C2          4.0090    4.6810    2.1890 c         1 MOL      0.504611
      3 O1          3.4030    3.9190    2.9220 o         1 MOL     -0.514503
      4 H1          6.0580    5.3720    2.2060 hc        1 MOL     -0.061078
      5 H2          4.8990    6.5040    2.9410 hc        1 MOL     -0.061078
      6 H3          5.3880    5.0350    3.8190 hc        1 MOL     -0.061078
      7 N1          3.7930    4.7770    0.8890 n         1 MOL     -0.283968
      8 C3          2.7830    4.2420    0.0400 c3        1 MOL      0.180396
      9 C4          1.3240    4.2880    0.5460 c         1 MOL      0.627341
     10 O2          0.5150    3.3780    0.1620 o         1 MOL     -0.549135
     11 C5          3.2600    2.8870   -0.5640 c3        1 MOL     -0.702821
     12 C6          4.7740    2.8490   -0.8270 c         1 MOL      0.780052
     13 O3          5.2050    3.6530   -1.6760 o         1 MOL     -0.665306
     14 O4          5.5240    2.1460   -0.1870 o         1 MOL     -0.665306
     15 H4          4.4100    5.4220    0.4210 hn        1 MOL      0.152006
     16 H5          2.6870    4.9250   -0.8050 h1        1 MOL      0.037849
     17 H6          2.6740    2.6770   -1.4500 hc        1 MOL      0.215010
     18 H7          3.0220    2.0810    0.1420 hc        1 MOL      0.215010
     19 N2          0.9490    5.1990    1.4600 n         1 MOL     -0.715567
     20 C7         -0.4470    5.2330    1.9780 c3        1 MOL      0.383463
     21 C8         -1.1790    6.4970    1.3230 c         1 MOL      0.600586
     22 O5         -0.7100    7.6270    1.3280 o         1 MOL     -0.597626
     23 C9         -0.4500    5.2440    3.5180 c3        1 MOL     -0.004193
     24 C10        -0.1630    3.7420    4.0110 c3        1 MOL      0.222045
     25 C11        -1.6710    5.8390    4.1140 c3        1 MOL     -0.084033
     26 C12        -0.1390    3.4970    5.5240 c3        1 MOL     -0.313781
     27 H8          1.7130    5.7820    1.7700 hn        1 MOL      0.283841
     28 H9         -1.0380    4.3790    1.6370 h1        1 MOL     -0.133515
     29 H10         0.3540    5.9500    3.7540 hc        1 MOL      0.011389
     30 H11         0.8420    3.5090    3.6490 hc        1 MOL      0.017313
     31 H12        -0.8880    3.0600    3.5560 hc        1 MOL      0.017313
     32 H13        -2.5780    5.4290    3.6790 hc        1 MOL      0.003182
     33 H14        -1.6840    5.6600    5.1870 hc        1 MOL      0.003182
     34 H15        -1.6790    6.9170    3.9930 hc        1 MOL      0.003182
     35 H16        -1.1670    3.4840    5.8930 hc        1 MOL      0.059863
     36 H17         0.2570    2.4920    5.6810 hc        1 MOL      0.059863
     37 H18         0.4430    4.2480    6.0560 hc        1 MOL      0.059863
     38 N3         -2.3660    6.3280    0.7510 n         1 MOL     -0.532962
     39 C13        -2.8950    5.0650    0.1370 c3        1 MOL      0.195829
     40 C14        -3.5120    5.4340   -1.2300 c         1 MOL      0.466557
     41 O6         -3.8240    6.6290   -1.4570 o         1 MOL     -0.508178
     42 C15        -3.9400    4.4080    1.0700 c3        1 MOL     -0.154902
     43 C16        -4.6250    3.1190    0.4970 c         1 MOL      0.700597
     44 O7         -5.8680    3.0860    0.1750 o         1 MOL     -0.704928
     45 O8         -4.0260    2.0030    0.3980 o         1 MOL     -0.704928
     46 H19        -2.6810    7.1410    0.2270 hn        1 MOL      0.281424
     47 H20        -2.0880    4.3950   -0.1670 h1        1 MOL      0.029256
     48 H21        -4.6750    5.1500    1.3570 hc        1 MOL      0.034694
     49 H22        -3.5480    4.1530    2.0610 hc        1 MOL      0.034694
     50 N4         -3.7390    4.4320   -2.1740 n         1 MOL     -0.416939
     51 C17        -4.4920    4.6190   -3.3900 c3        1 MOL     -0.034327
     52 C18        -5.6490    3.6140   -3.6150 c         1 MOL      0.645089
     53 O9         -6.6520    3.9640   -4.2180 o         1 MOL     -0.619281
     54 H23        -3.2420    3.5580   -2.1210 hn        1 MOL      0.298686
     55 H24        -3.8690    4.4650   -4.2650 h1        1 MOL      0.059757
     56 H25        -4.9160    5.6180   -3.5440 h1        1 MOL      0.059757
     57 N5         -5.5600    2.3980   -3.0960 n         1 MOL     -0.547308
     58 C19        -6.4830    1.2870   -3.4820 c3        1 MOL      0.145931
     59 C20        -7.4290    0.7930   -2.4210 c         1 MOL      0.413161
     60 O10        -8.3340    0.0280   -2.8820 o         1 MOL     -0.628529
     61 C21        -5.6850    0.1200   -4.1290 c3        1 MOL     -0.284387
     62 C22        -4.5110   -0.3550   -3.3300 c         1 MOL      0.796362
     63 O11        -4.6920   -0.9800   -2.2720 o         1 MOL     -0.741013
     64 O12        -3.3660   -0.1270   -3.8840 o         1 MOL     -0.741013
     65 H26        -4.8430    2.2350   -2.3940 hn        1 MOL      0.319427
     66 H27        -7.1280    1.6660   -4.2650 h1        1 MOL      0.092485
     67 H28        -5.3240    0.4280   -5.1120 hc        1 MOL      0.043200
     68 H29        -6.3730   -0.6920   -4.3620 hc        1 MOL      0.043200
     69 N6         -7.2340    1.0090   -1.1440 n         1 MOL     -0.210325
     70 C23        -8.0760    0.4270   -0.0850 c3        1 MOL     -0.037920
     71 C24        -7.8260   -1.0410    0.2130 c         1 MOL      0.564849
     72 O13        -8.5670   -1.4860    1.0570 o         1 MOL     -0.620040
     73 H30        -6.4570    1.5970   -0.9000 hn        1 MOL      0.233416
     74 H31        -9.1320    0.6220   -0.2280 h1        1 MOL      0.070990
     75 H32        -7.9110    1.0700    0.7820 h1        1 MOL      0.070990
     76 N7         -6.9430   -1.7170   -0.5000 n         1 MOL     -0.299903
     77 C25        -6.7130   -3.1960   -0.3280 c3        1 MOL      0.032674
     78 C26        -6.3820   -3.6750    1.0690 c         1 MOL      0.237732
     79 O14        -6.3280   -4.8990    1.3370 o         1 MOL     -0.524806
     80 C27        -7.7790   -4.0310   -1.0410 c3        1 MOL      0.150373
     81 C28        -8.1440   -3.6810   -2.5100 c3        1 MOL     -0.303914
     82 C29        -9.3030   -4.5360   -3.1140 c         1 MOL      0.639612
     83 N8        -10.2630   -3.8830   -3.7760 n         1 MOL     -0.780753
     84 O15        -9.3660   -5.7500   -3.0260 o         1 MOL     -0.571542
     85 H33        -6.4770   -1.1270   -1.1690 hn        1 MOL      0.241916
     86 H34        -5.8540   -3.4960   -0.9260 h1        1 MOL      0.126247
     87 H35        -8.7070   -3.8240   -0.5070 hc        1 MOL      0.001965
     88 H36        -7.6640   -5.1000   -0.9150 hc        1 MOL      0.001965
     89 H37        -7.2300   -3.8320   -3.0690 hc        1 MOL      0.095754
     90 H38        -8.3420   -2.6020   -2.5760 hc        1 MOL      0.095754
     91 H39       -10.1620   -2.8850   -3.7890 hn        1 MOL      0.353578
     92 H40       -10.9840   -4.4110   -4.2500 hn        1 MOL      0.353578
     93 N9         -6.2910   -2.8150    2.0980 n         1 MOL      0.005042
     94 C30        -5.7230   -3.0820    3.3960 c3        1 MOL     -0.049738
     95 C31        -4.1610   -2.7900    3.5320 c         1 MOL      0.418151
     96 O16        -3.6780   -2.6440    4.6770 o         1 MOL     -0.559131
     97 C32        -6.5780   -2.4080    4.4660 c3        1 MOL      0.242177
     98 C33        -6.8030   -0.9280    4.1590 c3        1 MOL     -0.267684
     99 C34        -7.9150   -3.1460    4.5740 c3        1 MOL     -0.267684
    100 H41        -6.3650   -1.8580    1.7740 hn        1 MOL      0.115189
    101 H42        -5.8210   -4.1450    3.6270 h1        1 MOL      0.083518
    102 H43        -6.0120   -2.5180    5.3970 hc        1 MOL     -0.023557
    103 H44        -7.2800   -0.3520    4.9420 hc        1 MOL      0.055992
    104 H45        -5.8170   -0.4680    4.2410 hc        1 MOL      0.055992
    105 H46        -7.2640   -0.6610    3.2100 hc        1 MOL      0.055992
    106 H47        -8.5110   -2.7020    5.3640 hc        1 MOL      0.055992
    107 H48        -8.5200   -3.1560    3.6700 hc        1 MOL      0.055992
    108 H49        -7.6960   -4.1970    4.8050 hc        1 MOL      0.055992
    109 N10        -3.4360   -2.3310    2.5090 n         1 MOL     -0.431911
    110 C35        -2.0310   -1.8830    2.6210 c3        1 MOL      0.382645
    111 C36        -1.2360   -2.2310    1.3400 c         1 MOL      0.333319
    112 O17        -1.7500   -2.3570    0.2160 o         1 MOL     -0.475690
    113 C37        -2.0440   -0.3400    2.8580 c3        1 MOL     -0.126414
    114 C38        -0.9690    0.4970    2.2330 c         1 MOL      0.473197
    115 N11        -1.2790    1.3180    1.2780 n         1 MOL     -0.543017
    116 O18         0.1920    0.4390    2.5680 o         1 MOL     -0.594917
    117 H50        -3.8420   -2.2980    1.5870 hn        1 MOL      0.246148
    118 H51        -1.6100   -2.4600    3.4480 h1        1 MOL      0.012559
    119 H52        -1.9800   -0.0760    3.9090 hc        1 MOL      0.052712
    120 H53        -3.0190    0.0130    2.5020 hc        1 MOL      0.052712
    121 H54        -2.2540    1.4110    1.0380 hn        1 MOL      0.317901
    122 H55        -0.5200    1.8220    0.8600 hn        1 MOL      0.317901
    123 N12         0.0540   -2.2680    1.4500 n         1 MOL     -0.533636
    124 C39         1.0190   -2.6320    0.4250 c3        1 MOL      0.593372
    125 C40         2.2460   -3.3730    0.9210 c         1 MOL      0.259696
    126 O19         2.6080   -3.2010    2.0600 o         1 MOL     -0.507095
    127 C41         1.4590   -1.3950   -0.3160 c3        1 MOL     -0.261308
    128 C42         2.1950   -1.6600   -1.6530 ca        1 MOL     -0.049364
    129 C43         1.6960   -2.4900   -2.7080 ca        1 MOL     -0.016540
    130 C44         3.4700   -1.1150   -1.8040 ca        1 MOL     -0.016540
    131 C45         2.3640   -2.6530   -3.9010 ca        1 MOL     -0.331799
    132 C46         4.0460   -1.1310   -3.0400 ca        1 MOL     -0.331799
    133 C47         3.4860   -1.8840   -4.0570 ca        1 MOL      0.363329
    134 O20         4.1800   -1.9310   -5.2590 oh        1 MOL     -0.526506
    135 H56         0.4200   -1.9970    2.3640 hn        1 MOL      0.246391
    136 H57         0.5020   -3.2990   -0.2750 h1        1 MOL     -0.030435
    137 H58         2.1040   -0.7910    0.3190 hc        1 MOL      0.111550
    138 H59         0.4930   -0.9640   -0.5900 hc        1 MOL      0.111550
    139 H60         0.7840   -3.0320   -2.4860 ha        1 MOL      0.097435
    140 H61         3.8490   -0.5470   -0.9630 ha        1 MOL      0.097435
    141 H62         1.9600   -3.2830   -4.6790 ha        1 MOL      0.165278
    142 H63         4.8930   -0.4940   -3.2830 ha        1 MOL      0.165278
    143 H64         3.6480   -2.4860   -5.8390 ho        1 MOL      0.360489
    144 N13         2.9980   -4.1600    0.1460 n         1 MOL     -0.492194
    145 C48         4.2120   -4.7930    0.5350 c3        1 MOL      0.302131
    146 C49         5.2430   -4.8880   -0.6030 c         1 MOL      0.342375
    147 O21         5.1060   -5.8480   -1.3890 o         1 MOL     -0.474863
    148 C50         3.9170   -6.0840    1.3030 c3        1 MOL      0.366785
    149 C51         5.1360   -6.8920    1.6810 c3        1 MOL     -0.311793
    150 C52         5.7600   -7.7480    0.6270 c         1 MOL      0.644852
    151 O22         5.0520   -8.4860   -0.0780 o         1 MOL     -0.621958
    152 O23         7.0040   -7.6790    0.4710 o         1 MOL     -0.621958
    153 H65         2.6520   -4.4230   -0.7640 hn        1 MOL      0.255568
    154 H66         4.7410   -4.2220    1.2900 h1        1 MOL     -0.001110
    155 H67         3.2220   -6.7170    0.7500 hc        1 MOL     -0.090712
    156 H68         3.4570   -5.8300    2.2490 hc        1 MOL     -0.090712
    157 H69         4.7520   -7.5290    2.4780 hc        1 MOL      0.052964
    158 H70         5.9200   -6.2490    2.0800 hc        1 MOL      0.052964
    159 N14         6.4010   -4.2170   -0.6130 n         1 MOL     -0.356922
    160 C53         6.7050   -2.9960    0.1150 c3        1 MOL      0.010763
    161 C54         6.9100   -3.1800    1.6760 c         1 MOL      0.515871
    162 O24         7.3910   -4.2540    2.0650 o         1 MOL     -0.509215
    163 C55         7.9150   -2.3100   -0.4190 c3        1 MOL      0.046204
    164 C56         7.5800   -1.4030   -1.6250 c3        1 MOL     -0.108648
    165 C57         8.7910   -0.5370   -1.7890 c         1 MOL      0.868767
    166 O25         8.6680    0.6840   -1.5430 o         1 MOL     -0.790672
    167 O26         9.8490   -1.0400   -2.2020 o         1 MOL     -0.790672
    168 H71         7.1260   -4.5200   -1.2490 hn        1 MOL      0.303148
    169 H72         5.9000   -2.2890   -0.0600 h1        1 MOL      0.040953
    170 H73         8.7000   -3.0290   -0.6770 hc        1 MOL     -0.020310
    171 H74         8.2330   -1.6140    0.3590 hc        1 MOL     -0.020310
    172 H75         6.7090   -0.8040   -1.3750 hc        1 MOL      0.008016
    173 H76         7.3280   -1.9800   -2.5080 hc        1 MOL      0.008016
    174 N15         6.5160   -2.2160    2.5150 n         1 MOL     -0.287685
    175 C58         6.4040   -2.3410    3.9510 c3        1 MOL     -0.547671
    176 H77         5.3560   -2.4610    4.2240 h1        1 MOL      0.192188
    177 H78         6.9690   -3.2110    4.2850 h1        1 MOL      0.192188
    178 H79         6.8030   -1.4440    4.4260 h1        1 MOL      0.192188
    179 H80         6.0650   -1.3800    2.1730 hn        1 MOL      0.257468
    180 Ca1         7.8030    3.2020   -0.9410 Ca        1 MOL      1.515584
    181 O27         7.6960    1.7980    1.3520 oh        1 MOL     -0.835382
    182 H81         6.9360    1.3030    1.0380 ho        1 MOL      0.398973
    183 H82         8.2190    1.1670    1.8510 ho        1 MOL      0.398973
    184 O28         7.7970    5.0730   -2.7480 oh        1 MOL     -0.835382
    185 H83         8.1550    5.9590   -2.7840 ho        1 MOL      0.398973
    186 H84         7.6970    4.8090   -3.6670 ho        1 MOL      0.398973
    187 O29        10.0080    3.0650   -2.7110 oh        1 MOL     -0.835382
    188 H85        10.3700    2.2230   -3.0050 ho        1 MOL      0.398973
    189 H86        10.7810    3.6290   -2.5990 ho        1 MOL      0.398973
    190 O30         6.9120    1.9450   -3.5800 oh        1 MOL     -0.835382
    191 H87         7.2530    1.2880   -4.1810 ho        1 MOL      0.398973
    192 H88         6.0060    1.6730   -3.4110 ho        1 MOL      0.398973
@<TRIPOS>BOND
     1    1    2 1   
     2    1    4 1   
     3    1    5 1   
     4    1    6 1   
     5    2    3 2   
     6    2    7 1   
     7    7    8 1   
     8    7   15 1   
     9    8    9 1   
    10    8   11 1   
    11    8   16 1   
    12    9   10 2   
    13    9   19 1   
    14   11   12 1   
    15   11   17 1   
    16   11   18 1   
    17   12   13 1   
    18   12   14 1   
    19   19   20 1   
    20   19   27 1   
    21   20   21 1   
    22   20   23 1   
    23   20   28 1   
    24   21   22 2   
    25   21   38 1   
    26   23   24 1   
    27   23   25 1   
    28   23   29 1   
    29   24   26 1   
    30   24   30 1   
    31   24   31 1   
    32   25   32 1   
    33   25   33 1   
    34   25   34 1   
    35   26   35 1   
    36   26   36 1   
    37   26   37 1   
    38   38   39 1   
    39   38   46 1   
    40   39   40 1   
    41   39   42 1   
    42   39   47 1   
    43   40   41 2   
    44   40   50 1   
    45   42   43 1   
    46   42   48 1   
    47   42   49 1   
    48   43   44 1   
    49   43   45 1   
    50   50   51 1   
    51   50   54 1   
    52   51   52 1   
    53   51   55 1   
    54   51   56 1   
    55   52   53 2   
    56   52   57 1   
    57   57   58 1   
    58   57   65 1   
    59   58   59 1   
    60   58   61 1   
    61   58   66 1   
    62   59   60 2   
    63   59   69 1   
    64   61   62 1   
    65   61   67 1   
    66   61   68 1   
    67   62   63 1   
    68   62   64 1   
    69   69   70 1   
    70   69   73 1   
    71   70   71 1   
    72   70   74 1   
    73   70   75 1   
    74   71   72 2   
    75   71   76 1   
    76   76   77 1   
    77   76   85 1   
    78   77   78 1   
    79   77   80 1   
    80   77   86 1   
    81   78   79 2   
    82   78   93 1   
    83   80   81 1   
    84   80   87 1   
    85   80   88 1   
    86   81   82 1   
    87   81   89 1   
    88   81   90 1   
    89   82   83 1   
    90   82   84 2   
    91   83   91 1   
    92   83   92 1   
    93   93   94 1   
    94   93  100 1   
    95   94   95 1   
    96   94   97 1   
    97   94  101 1   
    98   95   96 2   
    99   95  109 1   
   100   97   98 1   
   101   97   99 1   
   102   97  102 1   
   103   98  103 1   
   104   98  104 1   
   105   98  105 1   
   106   99  106 1   
   107   99  107 1   
   108   99  108 1   
   109  109  110 1   
   110  109  117 1   
   111  110  111 1   
   112  110  113 1   
   113  110  118 1   
   114  111  112 2   
   115  111  123 1   
   116  113  114 1   
   117  113  119 1   
   118  113  120 1   
   119  114  115 1   
   120  114  116 2   
   121  115  121 1   
   122  115  122 1   
   123  123  124 1   
   124  123  135 1   
   125  124  125 1   
   126  124  127 1   
   127  124  136 1   
   128  125  126 2   
   129  125  144 1   
   130  127  128 1   
   131  127  137 1   
   132  127  138 1   
   133  128  129 ar  
   134  128  130 ar  
   135  129  131 ar  
   136  129  139 1   
   137  130  132 ar  
   138  130  140 1   
   139  131  133 ar  
   140  131  141 1   
   141  132  133 ar  
   142  132  142 1   
   143  133  134 1   
   144  134  143 1   
   145  144  145 1   
   146  144  153 1   
   147  145  146 1   
   148  145  148 1   
   149  145  154 1   
   150  146  147 2   
   151  146  159 1   
   152  148  149 1   
   153  148  155 1   
   154  148  156 1   
   155  149  150 1   
   156  149  157 1   
   157  149  158 1   
   158  150  151 1   
   159  150  152 1   
   160  159  160 1   
   161  159  168 1   
   162  160  161 1   
   163  160  163 1   
   164  160  169 1   
   165  161  162 2   
   166  161  174 1   
   167  163  164 1   
   168  163  170 1   
   169  163  171 1   
   170  164  165 1   
   171  164  172 1   
   172  164  173 1   
   173  165  166 1   
   174  165  167 1   
   175  174  175 1   
   176  174  179 1   
   177  175  176 1   
   178  175  177 1   
   179  175  178 1   
   180  181  182 1   
   181  181  183 1   
   182  184  185 1   
   183  184  186 1   
   184  187  188 1   
   185  187  189 1   
   186  190  191 1   
   187  190  192 1   
@<TRIPOS>SUBSTRUCTURE
     1 MOL         1 TEMP              0 ****  ****    0 ROOT
