@<TRIPOS>MOLECULE
MOL
  192   187     1     0     0
SMALL
resp


@<TRIPOS>ATOM
      1 C1         11.9100    5.7360   -2.2350 c3        1 MOL     -0.139844
      2 C2         11.8530    4.3530   -1.5370 c         1 MOL      0.538923
      3 O1         12.8840    3.6560   -1.5350 o         1 MOL     -0.586796
      4 H1         12.9480    5.9990   -2.4350 hc        1 MOL      0.041744
      5 H2         11.3590    5.6920   -3.1750 hc        1 MOL      0.041744
      6 H3         11.4630    6.4890   -1.5870 hc        1 MOL      0.041744
      7 N1         10.7730    3.9040   -0.8960 n         1 MOL     -0.074029
      8 C3         10.6860    2.6410   -0.2480 c3        1 MOL     -0.111975
      9 C4          9.3860    1.9000   -0.7110 c         1 MOL      0.343802
     10 O2          8.3120    2.5250   -0.8190 o         1 MOL     -0.520234
     11 C5         10.6600    2.8780    1.2820 c3        1 MOL     -0.136440
     12 C6          9.9900    4.2500    1.6700 c         1 MOL      0.634597
     13 O3          8.9780    4.6550    1.0670 o         1 MOL     -0.647703
     14 O4         10.5450    5.0560    2.4180 o         1 MOL     -0.647703
     15 H4          9.9000    4.3940   -1.0190 hn        1 MOL      0.033648
     16 H5         11.4800    1.9090   -0.3960 h1        1 MOL      0.101116
     17 H6         11.6770    2.8260    1.6690 hc        1 MOL      0.064608
     18 H7         10.1380    1.9990    1.6740 hc        1 MOL      0.064608
     19 N2          9.3420    0.5850   -0.9160 n         1 MOL     -0.374547
     20 C7          8.1670   -0.1960   -1.2140 c3        1 MOL     -0.048857
     21 C8          7.3880   -0.5180    0.0610 c         1 MOL      0.974451
     22 O5          7.7570   -1.2940    0.8180 o         1 MOL     -0.622766
     23 C9          8.4870   -1.4180   -2.1130 c3        1 MOL     -0.322825
     24 C10         7.1060   -2.0730   -2.3930 c3        1 MOL      0.041822
     25 C11         7.3300   -3.2410   -3.3830 c3        1 MOL     -0.115478
     26 C12         8.2530   -4.3510   -2.7200 c3        1 MOL      0.082873
     27 N3          8.6000   -5.3380   -3.7910 n4        1 MOL     -0.282599
     28 H8         10.2160    0.1200   -0.6900 hn        1 MOL      0.303728
     29 H9          7.4680    0.3740   -1.8280 h1        1 MOL      0.132496
     30 H10         9.1610   -2.0560   -1.5490 hc        1 MOL      0.102462
     31 H11         8.9600   -1.0270   -3.0120 hc        1 MOL      0.102462
     32 H12         6.4600   -1.2820   -2.7870 hc        1 MOL      0.047371
     33 H13         6.7250   -2.5470   -1.4910 hc        1 MOL      0.047371
     34 H14         7.9130   -2.7410   -4.1590 hc        1 MOL      0.050856
     35 H15         6.3750   -3.6150   -3.7620 hc        1 MOL      0.050856
     36 H16         7.8300   -4.7520   -1.8020 hx        1 MOL      0.082071
     37 H17         9.2190   -3.9210   -2.4760 hx        1 MOL      0.082071
     38 H18         7.9150   -6.0640   -3.9600 hn        1 MOL      0.268517
     39 H19         8.7720   -4.9110   -4.6900 hn        1 MOL      0.268517
     40 H20         9.4490   -5.8360   -3.5630 hn        1 MOL      0.268517
     41 N4          6.1970    0.0690    0.2080 n         1 MOL     -0.763696
     42 C13         5.2440   -0.3100    1.2380 c3        1 MOL      0.267045
     43 C14         3.7890   -0.3080    0.7180 c         1 MOL      0.427928
     44 O6          3.4870    0.1350   -0.3610 o         1 MOL     -0.551417
     45 C15         5.3260    0.6070    2.5030 c3        1 MOL     -0.256506
     46 C16         5.5580    2.0850    2.1130 c         1 MOL      0.751057
     47 O7          6.5940    2.7050    2.3440 o         1 MOL     -0.691632
     48 O8          4.6560    2.6800    1.4870 o         1 MOL     -0.691632
     49 H21         5.8430    0.7110   -0.4880 hn        1 MOL      0.248834
     50 H22         5.5010   -1.3260    1.5600 h1        1 MOL      0.063610
     51 H23         6.2220    0.3090    3.0490 hc        1 MOL      0.061874
     52 H24         4.4330    0.5080    3.1340 hc        1 MOL      0.061874
     53 N5          2.7990   -1.0280    1.2980 n         1 MOL     -0.438584
     54 C17         2.7380   -1.6720    2.6090 c3        1 MOL      0.014765
     55 C18         2.5410   -3.2030    2.5580 c         1 MOL      0.528089
     56 O9          2.8270   -3.7750    1.5320 o         1 MOL     -0.582290
     57 H25         1.9460   -1.0570    0.7490 hn        1 MOL      0.334080
     58 H26         1.9500   -1.1990    3.1980 h1        1 MOL      0.072619
     59 H27         3.7020   -1.4530    3.0900 h1        1 MOL      0.072619
     60 N6          2.0870   -3.8270    3.6970 n         1 MOL     -0.288934
     61 C19         2.1060   -5.2600    4.0170 c3        1 MOL      0.059539
     62 C20         1.3930   -6.1150    2.9430 c         1 MOL      0.386074
     63 O10         1.5380   -7.3330    2.9370 o         1 MOL     -0.522862
     64 C21         1.5180   -5.5150    5.4230 c3        1 MOL     -0.217135
     65 C22         1.8920   -4.5400    6.5690 c         1 MOL      0.726416
     66 O11         2.4820   -4.9140    7.5640 o         1 MOL     -0.649943
     67 O12         1.5030   -3.3380    6.4370 o         1 MOL     -0.649943
     68 H28         1.9290   -3.2560    4.5190 hn        1 MOL      0.108263
     69 H29         3.1380   -5.5850    3.9230 h1        1 MOL      0.070400
     70 H30         1.9190   -6.4330    5.8460 hc        1 MOL      0.053109
     71 H31         0.4530   -5.6760    5.2480 hc        1 MOL      0.053109
     72 N7          0.5790   -5.4600    2.0820 n         1 MOL     -0.112902
     73 C23        -0.2490   -6.1510    1.0480 c3        1 MOL     -0.082274
     74 C24        -0.1980   -5.4110   -0.3240 c         1 MOL      0.475467
     75 O13        -0.8220   -5.9100   -1.2580 o         1 MOL     -0.557382
     76 H32         0.3360   -4.5010    2.2910 hn        1 MOL      0.125868
     77 H33        -1.2880   -6.1820    1.3870 h1        1 MOL      0.084747
     78 H34         0.1370   -7.1630    0.9410 h1        1 MOL      0.084747
     79 N8          0.4640   -4.2510   -0.4340 n         1 MOL     -0.217860
     80 C25         0.7520   -3.5220   -1.6540 c3        1 MOL     -0.097060
     81 C26         0.3520   -2.0300   -1.6130 c         1 MOL      0.652759
     82 O14         0.7770   -1.2900   -0.7050 o         1 MOL     -0.522000
     83 C27         2.2700   -3.5550   -1.9990 c3        1 MOL      0.442494
     84 C28         2.8710   -4.9980   -1.9640 c3        1 MOL     -0.189347
     85 O15         2.4530   -3.1230   -3.3410 oh        1 MOL     -0.671038
     86 H35         0.8480   -3.8630    0.4160 hn        1 MOL      0.178942
     87 H36         0.1650   -4.0150   -2.4260 h1        1 MOL      0.076296
     88 H37         2.9130   -2.9810   -1.3420 h1        1 MOL     -0.034950
     89 H38         2.5220   -2.1630   -3.2980 ho        1 MOL      0.393842
     90 H39         2.3970   -5.6660   -2.6800 hc        1 MOL      0.050261
     91 H40         3.9300   -4.8790   -2.2270 hc        1 MOL      0.050261
     92 H41         2.7510   -5.4430   -0.9780 hc        1 MOL      0.050261
     93 N9         -0.5110   -1.5920   -2.5720 n         1 MOL     -0.655490
     94 C29        -1.1000   -0.2370   -2.4610 c3        1 MOL      0.085163
     95 C30        -2.4180   -0.1370   -1.7670 c         1 MOL      0.719421
     96 O16        -2.5880    0.8280   -1.0220 o         1 MOL     -0.546499
     97 C31        -1.0340    0.5120   -3.8570 c3        1 MOL      0.007029
     98 C32         0.4620    0.6560   -4.3440 c3        1 MOL      0.200897
     99 C33        -1.6490    1.8930   -3.9950 c3        1 MOL     -0.399203
    100 C34         1.2590    1.6180   -3.5580 c3        1 MOL     -0.144664
    101 H42        -0.9200   -2.1690   -3.2960 hn        1 MOL      0.328004
    102 H43        -0.3640    0.3540   -1.9140 h1        1 MOL      0.052877
    103 H44        -1.4900   -0.1940   -4.5450 hc        1 MOL      0.027077
    104 H45         0.3190    0.9790   -5.3670 hc        1 MOL     -0.052867
    105 H46         1.0380   -0.2710   -4.4380 hc        1 MOL     -0.052867
    106 H47        -2.7220    1.8660   -3.7630 hc        1 MOL      0.115043
    107 H48        -1.3780    2.5770   -3.1820 hc        1 MOL      0.115043
    108 H49        -1.5830    2.2160   -5.0320 hc        1 MOL      0.115043
    109 H50         0.6950    2.5400   -3.4050 hc        1 MOL      0.035719
    110 H51         1.5980    1.1430   -2.6340 hc        1 MOL      0.035719
    111 H52         2.2160    1.7240   -4.0640 hc        1 MOL      0.035719
    112 N10        -3.2220   -1.2300   -1.8410 n         1 MOL     -0.669961
    113 C35        -4.3190   -1.4500   -0.9110 c3        1 MOL      0.117397
    114 C36        -5.5660   -2.0900   -1.5640 c         1 MOL      0.662964
    115 O17        -5.4140   -3.0040   -2.3760 o         1 MOL     -0.555075
    116 C37        -3.9060   -2.3990    0.2890 c3        1 MOL      0.239977
    117 C38        -3.2640   -3.7290   -0.0330 c3        1 MOL     -0.288129
    118 O18        -2.9400   -1.6780    1.0330 oh        1 MOL     -0.589038
    119 H53        -2.8490   -2.0520   -2.3030 hn        1 MOL      0.330209
    120 H54        -4.6380   -0.5000   -0.4780 h1        1 MOL      0.035365
    121 H55        -4.7400   -2.5020    0.9900 h1        1 MOL      0.010819
    122 H56        -3.3520   -0.9300    1.4830 ho        1 MOL      0.402697
    123 H57        -2.8650   -4.1200    0.8990 hc        1 MOL      0.095125
    124 H58        -3.9550   -4.4790   -0.4140 hc        1 MOL      0.095125
    125 H59        -2.5270   -3.5720   -0.8240 hc        1 MOL      0.095125
    126 N11        -6.7730   -1.7430   -1.1880 n         1 MOL     -0.731625
    127 C39        -8.0100   -2.0270   -1.9770 c3        1 MOL      0.159889
    128 C40        -8.9080   -0.8940   -2.1400 c         1 MOL      0.462068
    129 O19        -9.4240   -0.6150   -3.2720 o         1 MOL     -0.533717
    130 C41        -8.7040   -3.1900   -1.2640 c3        1 MOL      0.311027
    131 C42        -9.9390   -3.5870   -1.9880 c3        1 MOL     -0.583226
    132 O20        -9.1130   -2.8750    0.0600 oh        1 MOL     -0.646127
    133 H60        -6.8200   -1.1730   -0.3590 hn        1 MOL      0.343016
    134 H61        -7.7060   -2.4110   -2.9560 h1        1 MOL      0.099136
    135 H62        -8.0290   -4.0460   -1.2780 h1        1 MOL      0.052933
    136 H63        -9.4300   -3.7170    0.3940 ho        1 MOL      0.413346
    137 H64       -10.8390   -3.0450   -1.7080 hc        1 MOL      0.148382
    138 H65        -9.7280   -3.6400   -3.0540 hc        1 MOL      0.148382
    139 H66       -10.1260   -4.5890   -1.5950 hc        1 MOL      0.148382
    140 N12        -9.1130   -0.1790   -1.0110 n         1 MOL     -0.149225
    141 C43        -9.7580    1.0900   -1.0520 c3        1 MOL     -0.229175
    142 C44        -9.3910    1.9670    0.1570 c         1 MOL      0.617426
    143 O21        -9.0280    1.4700    1.1920 o         1 MOL     -0.503262
    144 C45       -11.3080    0.9000   -1.1300 c3        1 MOL     -0.209058
    145 C46       -11.8710    0.1640    0.0670 c3        1 MOL     -0.067000
    146 C47       -13.2800   -0.4370   -0.1990 c3        1 MOL     -0.016797
    147 C48       -13.9250   -1.0640    1.0760 c3        1 MOL      0.004413
    148 N13       -15.1740   -1.7760    0.7550 n4        1 MOL     -0.282904
    149 H67        -8.4610   -0.3790   -0.2650 hn        1 MOL      0.213752
    150 H68        -9.4920    1.5700   -1.9970 h1        1 MOL      0.134223
    151 H69       -11.4550    0.3640   -2.0610 hc        1 MOL      0.109956
    152 H70       -11.8730    1.8120   -1.3160 hc        1 MOL      0.109956
    153 H71       -11.9300    0.9350    0.8360 hc        1 MOL      0.069978
    154 H72       -11.3370   -0.7390    0.3690 hc        1 MOL      0.069978
    155 H73       -13.2750   -1.2040   -0.9720 hc        1 MOL      0.033196
    156 H74       -13.8720    0.4350   -0.4690 hc        1 MOL      0.033196
    157 H75       -14.0330   -0.2260    1.7700 hx        1 MOL      0.083649
    158 H76       -13.2330   -1.8340    1.4190 hx        1 MOL      0.083649
    159 H77       -15.9040   -1.0720    0.7380 hn        1 MOL      0.259901
    160 H78       -15.1380   -2.2510   -0.1360 hn        1 MOL      0.259901
    161 H79       -15.3390   -2.4570    1.4800 hn        1 MOL      0.259901
    162 N14        -9.5170    3.3330    0.0460 n         1 MOL     -0.548745
    163 C49        -9.1730    4.3370    1.1010 c3        1 MOL      0.167736
    164 C50        -7.6710    4.2680    1.3500 c         1 MOL      0.389125
    165 O22        -7.2960    4.0410    2.4750 o         1 MOL     -0.509482
    166 C51        -9.7020    5.7890    0.7770 c3        1 MOL     -0.032177
    167 C52        -9.1540    6.8570    1.7840 c3        1 MOL     -0.162375
    168 C53        -9.8760    8.1980    1.8210 c         1 MOL      0.744597
    169 O23       -10.2440    8.6060    2.9500 o         1 MOL     -0.662789
    170 O24       -10.1070    8.7770    0.7960 o         1 MOL     -0.662789
    171 H80       -10.0030    3.6430   -0.7840 hn        1 MOL      0.273610
    172 H81        -9.6480    4.0510    2.0440 h1        1 MOL      0.080748
    173 H82       -10.7790    5.8950    0.8670 hc        1 MOL      0.025390
    174 H83        -9.4530    5.9750   -0.2740 hc        1 MOL      0.025390
    175 H84        -8.1310    7.1340    1.5130 hc        1 MOL      0.035251
    176 H85        -9.0760    6.3460    2.7470 hc        1 MOL      0.035251
    177 N15        -6.7310    4.4490    0.3890 n         1 MOL     -0.309816
    178 C54        -6.9590    4.9230   -0.9320 c3        1 MOL     -0.075015
    179 H86        -6.0710    5.4430   -1.2900 h1        1 MOL      0.050631
    180 H87        -7.1740    4.0800   -1.5890 h1        1 MOL      0.050631
    181 H88        -7.8060    5.6080   -0.9320 h1        1 MOL      0.050631
    182 H89        -5.7550    4.4150    0.6090 hn        1 MOL      0.280835
    183 Ca1         6.6370    4.2810    0.2640 Ca        1 MOL      1.745876
    184 O25         4.1560    5.1880   -0.1510 oh        1 MOL     -0.926524
    185 H90         3.8910    6.0250    0.2280 ho        1 MOL      0.447789
    186 H91         3.3550    4.8320   -0.5450 ho        1 MOL      0.447789
    187 O26         6.4570    5.9080    2.4580 oh        1 MOL     -0.926524
    188 H92         5.6210    6.2410    2.7890 ho        1 MOL      0.447789
    189 H93         7.1040    6.5670    2.7010 ho        1 MOL      0.447789
    190 O27         5.4710    2.3690   -1.2040 oh        1 MOL     -0.926524
    191 H94         5.4960    2.1570   -2.1390 ho        1 MOL      0.447789
    192 H95         4.5370    2.3020   -0.9740 ho        1 MOL      0.447789
@<TRIPOS>BOND
     1    1    2 1   
     2    1    4 1   
     3    1    5 1   
     4    1    6 1   
     5    2    3 2   
     6    2    7 1   
     7    7    8 1   
     8    7   15 1   
     9    8    9 1   
    10    8   11 1   
    11    8   16 1   
    12    9   10 2   
    13    9   19 1   
    14   11   12 1   
    15   11   17 1   
    16   11   18 1   
    17   12   13 1   
    18   12   14 1   
    19   19   20 1   
    20   19   28 1   
    21   20   21 1   
    22   20   23 1   
    23   20   29 1   
    24   21   22 2   
    25   21   41 1   
    26   23   24 1   
    27   23   30 1   
    28   23   31 1   
    29   24   25 1   
    30   24   32 1   
    31   24   33 1   
    32   25   26 1   
    33   25   34 1   
    34   25   35 1   
    35   26   27 1   
    36   26   36 1   
    37   26   37 1   
    38   27   38 1   
    39   27   39 1   
    40   27   40 1   
    41   41   42 1   
    42   41   49 1   
    43   42   43 1   
    44   42   45 1   
    45   42   50 1   
    46   43   44 2   
    47   43   53 1   
    48   45   46 1   
    49   45   51 1   
    50   45   52 1   
    51   46   47 1   
    52   46   48 1   
    53   53   54 1   
    54   53   57 1   
    55   54   55 1   
    56   54   58 1   
    57   54   59 1   
    58   55   56 2   
    59   55   60 1   
    60   60   61 1   
    61   60   68 1   
    62   61   62 1   
    63   61   64 1   
    64   61   69 1   
    65   62   63 2   
    66   62   72 1   
    67   64   65 1   
    68   64   70 1   
    69   64   71 1   
    70   65   66 1   
    71   65   67 1   
    72   72   73 1   
    73   72   76 1   
    74   73   74 1   
    75   73   77 1   
    76   73   78 1   
    77   74   75 2   
    78   74   79 1   
    79   79   80 1   
    80   79   86 1   
    81   80   81 1   
    82   80   83 1   
    83   80   87 1   
    84   81   82 2   
    85   81   93 1   
    86   83   84 1   
    87   83   85 1   
    88   83   88 1   
    89   84   90 1   
    90   84   91 1   
    91   84   92 1   
    92   85   89 1   
    93   93   94 1   
    94   93  101 1   
    95   94   95 1   
    96   94   97 1   
    97   94  102 1   
    98   95   96 2   
    99   95  112 1   
   100   97   98 1   
   101   97   99 1   
   102   97  103 1   
   103   98  100 1   
   104   98  104 1   
   105   98  105 1   
   106   99  106 1   
   107   99  107 1   
   108   99  108 1   
   109  100  109 1   
   110  100  110 1   
   111  100  111 1   
   112  112  113 1   
   113  112  119 1   
   114  113  114 1   
   115  113  116 1   
   116  113  120 1   
   117  114  115 2   
   118  114  126 1   
   119  116  117 1   
   120  116  118 1   
   121  116  121 1   
   122  117  123 1   
   123  117  124 1   
   124  117  125 1   
   125  118  122 1   
   126  126  127 1   
   127  126  133 1   
   128  127  128 1   
   129  127  130 1   
   130  127  134 1   
   131  128  129 2   
   132  128  140 1   
   133  130  131 1   
   134  130  132 1   
   135  130  135 1   
   136  131  137 1   
   137  131  138 1   
   138  131  139 1   
   139  132  136 1   
   140  140  141 1   
   141  140  149 1   
   142  141  142 1   
   143  141  144 1   
   144  141  150 1   
   145  142  143 2   
   146  142  162 1   
   147  144  145 1   
   148  144  151 1   
   149  144  152 1   
   150  145  146 1   
   151  145  153 1   
   152  145  154 1   
   153  146  147 1   
   154  146  155 1   
   155  146  156 1   
   156  147  148 1   
   157  147  157 1   
   158  147  158 1   
   159  148  159 1   
   160  148  160 1   
   161  148  161 1   
   162  162  163 1   
   163  162  171 1   
   164  163  164 1   
   165  163  166 1   
   166  163  172 1   
   167  164  165 2   
   168  164  177 1   
   169  166  167 1   
   170  166  173 1   
   171  166  174 1   
   172  167  168 1   
   173  167  175 1   
   174  167  176 1   
   175  168  169 1   
   176  168  170 1   
   177  177  178 1   
   178  177  182 1   
   179  178  179 1   
   180  178  180 1   
   181  178  181 1   
   182  184  185 1   
   183  184  186 1   
   184  187  188 1   
   185  187  189 1   
   186  190  191 1   
   187  190  192 1   
@<TRIPOS>SUBSTRUCTURE
     1 MOL         1 TEMP              0 ****  ****    0 ROOT
