@<TRIPOS>MOLECULE
MOL
  188   182     1     0     0
SMALL
resp


@<TRIPOS>ATOM
      1 C1         -4.3270    1.9540   -2.1590 c3        1 MOL     -0.220205
      2 C2         -5.2240    2.2620   -0.9300 c         1 MOL      0.754611
      3 O1         -5.0500    1.7720    0.1610 o         1 MOL     -0.534124
      4 H1         -4.2270    0.8750   -2.2740 hc        1 MOL      0.038092
      5 H2         -4.7810    2.3750   -3.0560 hc        1 MOL      0.038092
      6 H3         -3.3420    2.3950   -2.0080 hc        1 MOL      0.038092
      7 N1         -6.3240    2.9640   -1.2390 n         1 MOL     -0.618039
      8 C3         -7.3800    3.2030   -0.2670 c3        1 MOL      0.028542
      9 C4         -7.9840    1.9860    0.4330 c         1 MOL      0.657734
     10 O2         -8.8990    2.1330    1.2700 o         1 MOL     -0.546622
     11 C5         -6.9870    4.3120    0.7560 c3        1 MOL     -0.242970
     12 C6         -6.4850    5.5380    0.0850 c         1 MOL      0.735666
     13 O3         -5.2540    5.8050    0.2050 o         1 MOL     -0.662542
     14 O4         -7.2380    6.3090   -0.6050 o         1 MOL     -0.662542
     15 H4         -6.4220    3.3470   -2.1730 hn        1 MOL      0.368217
     16 H5         -8.2440    3.6560   -0.7610 h1        1 MOL      0.078971
     17 H6         -6.2490    3.8270    1.4090 hc        1 MOL      0.073942
     18 H7         -7.8220    4.5880    1.4000 hc        1 MOL      0.073942
     19 N2         -7.7130    0.7970   -0.1280 n         1 MOL     -0.651017
     20 C7         -8.1780   -0.5100    0.3540 c3        1 MOL      0.112875
     21 C8         -7.0090   -1.5100    0.6280 c         1 MOL      0.524297
     22 O5         -7.2430   -2.5270    1.2250 o         1 MOL     -0.579461
     23 C9         -9.2300   -0.9810   -0.7010 c3        1 MOL     -0.033671
     24 C10        -9.9300   -2.3220   -0.4920 c3        1 MOL     -0.047626
     25 C11       -11.0640   -2.4660   -1.4320 c3        1 MOL     -0.000075
     26 C12       -12.0040   -3.5650   -0.9590 c3        1 MOL      0.013861
     27 N3        -12.9890   -3.9720   -1.9340 n4        1 MOL     -0.163504
     28 H8         -7.1060    0.7570   -0.9390 hn        1 MOL      0.264438
     29 H9         -8.7970   -0.3270    1.2370 h1        1 MOL      0.118129
     30 H10        -8.8380   -1.0640   -1.7130 hc        1 MOL      0.023673
     31 H11       -10.0250   -0.2380   -0.6890 hc        1 MOL      0.023673
     32 H12       -10.2550   -2.2380    0.5390 hc        1 MOL      0.029561
     33 H13        -9.2140   -3.1430   -0.5540 hc        1 MOL      0.029561
     34 H14       -10.6950   -2.6180   -2.4450 hc        1 MOL      0.032636
     35 H15       -11.6590   -1.5640   -1.4430 hc        1 MOL      0.032636
     36 H16       -12.5320   -3.1770   -0.0920 hx        1 MOL      0.073352
     37 H17       -11.4920   -4.4950   -0.6980 hx        1 MOL      0.073352
     38 H18       -12.4720   -4.3160   -2.7190 hn        1 MOL      0.220091
     39 H19       -13.6650   -4.5700   -1.4670 hn        1 MOL      0.220091
     40 H20       -13.5570   -3.2420   -2.3350 hn        1 MOL      0.220091
     41 N4         -5.7820   -1.1350    0.2660 n         1 MOL     -0.140443
     42 C13        -4.6070   -1.9580    0.5850 c3        1 MOL     -0.484333
     43 C14        -4.1660   -1.8490    2.0390 c         1 MOL      0.732698
     44 O6         -4.1140   -0.7550    2.5590 o         1 MOL     -0.494780
     45 C15        -3.5460   -1.5650   -0.4200 c3        1 MOL     -0.030614
     46 C16        -2.4070   -2.5530   -0.5900 c         1 MOL      0.701598
     47 O7         -1.9630   -2.8530   -1.7250 o         1 MOL     -0.750662
     48 O8         -1.8280   -3.1230    0.3170 o         1 MOL     -0.750662
     49 H21        -5.6900   -0.2610   -0.2300 hn        1 MOL      0.203905
     50 H22        -4.7910   -2.9830    0.2630 h1        1 MOL      0.135096
     51 H23        -3.0280   -0.6780   -0.0720 hc        1 MOL      0.055073
     52 H24        -3.9590   -1.2090   -1.3650 hc        1 MOL      0.055073
     53 N5         -3.5610   -2.9250    2.5940 n         1 MOL     -0.455692
     54 C17        -2.8630   -3.0600    3.8940 c3        1 MOL     -0.295646
     55 C18        -1.4920   -2.3240    3.9530 c         1 MOL      0.522247
     56 O9         -0.9710   -2.1010    5.1070 o         1 MOL     -0.542188
     57 H25        -3.5710   -3.7380    1.9950 hn        1 MOL      0.321571
     58 H26        -2.7340   -4.1240    4.0800 h1        1 MOL      0.167533
     59 H27        -3.4470   -2.5390    4.6460 h1        1 MOL      0.167533
     60 N6         -1.0080   -1.8750    2.7920 n         1 MOL     -0.398220
     61 C19         0.2310   -1.0760    2.6750 c3        1 MOL      0.038226
     62 C20        -0.1480    0.4310    2.4460 c         1 MOL      0.604375
     63 O10         0.7090    1.2590    2.4300 o         1 MOL     -0.554992
     64 C21         1.0040   -1.5280    1.4420 c3        1 MOL     -0.247869
     65 C22         1.6440   -2.8540    1.6870 c         1 MOL      0.583635
     66 N7          2.5830   -2.8970    2.5780 n         1 MOL     -0.685805
     67 O11         1.3410   -3.8880    1.0610 o         1 MOL     -0.603601
     68 H28        -1.4640   -2.1050    1.9250 hn        1 MOL      0.348063
     69 H29         0.9070   -1.0510    3.5280 h1        1 MOL      0.076251
     70 H30         1.7530   -0.8020    1.1110 hc        1 MOL      0.093187
     71 H31         0.2770   -1.6620    0.6340 hc        1 MOL      0.093187
     72 H32         2.9620   -2.0110    2.8690 hn        1 MOL      0.367636
     73 H33         2.9310   -3.8120    2.8120 hn        1 MOL      0.367636
     74 N8         -1.4780    0.7500    2.2980 n         1 MOL     -0.433023
     75 C23        -2.0100    2.0370    1.9920 c3        1 MOL     -0.019952
     76 C24        -1.4000    2.7160    0.7370 c         1 MOL      0.570483
     77 O12        -1.4370    2.1630   -0.3360 o         1 MOL     -0.552389
     78 H34        -2.1290   -0.0200    2.3990 hn        1 MOL      0.259273
     79 H35        -2.0020    2.7650    2.7970 h1        1 MOL      0.080312
     80 H36        -3.0870    2.0340    1.8670 h1        1 MOL      0.080312
     81 N9         -0.7880    3.8500    1.0280 n         1 MOL     -0.607130
     82 C25         0.0890    4.5730    0.1810 c3        1 MOL      0.268964
     83 C26         1.4750    3.8530   -0.0980 c         1 MOL      0.444596
     84 O13         2.4830    4.5660    0.0020 o         1 MOL     -0.591966
     85 C27        -0.6020    5.1480   -1.1210 c3        1 MOL     -0.371108
     86 C28         0.0960    6.3900   -1.5520 ca        1 MOL      0.080278
     87 C29        -0.0620    7.5460   -0.8340 ca        1 MOL     -0.139028
     88 C30         0.9250    6.4080   -2.6790 ca        1 MOL     -0.139028
     89 C31         0.5030    8.7730   -1.2880 ca        1 MOL     -0.276882
     90 C32         1.5490    7.6080   -3.1060 ca        1 MOL     -0.276882
     91 C33         1.3780    8.8290   -2.4180 ca        1 MOL      0.329488
     92 O14         2.0810    9.9360   -2.7530 oh        1 MOL     -0.463569
     93 H37        -0.6510    4.0610    2.0040 hn        1 MOL      0.339201
     94 H38         0.4680    5.3580    0.8430 h1        1 MOL      0.047713
     95 H39        -1.5950    5.4970   -0.8240 hc        1 MOL      0.179725
     96 H40        -0.5620    4.3940   -1.9080 hc        1 MOL      0.179725
     97 H41        -0.5020    7.5130    0.1440 ha        1 MOL      0.140064
     98 H42         1.1030    5.5130   -3.2530 ha        1 MOL      0.140064
     99 H43         0.4750    9.6250   -0.6310 ha        1 MOL      0.147664
    100 H44         2.2890    7.5830   -3.8930 ha        1 MOL      0.147664
    101 H45         2.6760    9.6970   -3.4650 ho        1 MOL      0.351199
    102 N10         1.5580    2.5960   -0.4990 n         1 MOL     -0.298284
    103 C34         2.7970    1.7980   -0.8230 c3        1 MOL     -0.041647
    104 C35         3.5850    1.5480    0.4590 c         1 MOL      0.271468
    105 O15         3.9130    0.4710    0.8350 o         1 MOL     -0.444087
    106 C36         3.6190    2.4770   -1.9430 c3        1 MOL      0.073265
    107 C37         2.7830    2.6190   -3.2050 c3        1 MOL      0.079100
    108 C38         4.9110    1.7030   -2.2610 c3        1 MOL      0.070392
    109 C39         3.4220    3.5000   -4.2480 c3        1 MOL     -0.597176
    110 H46         0.6480    2.1500   -0.5620 hn        1 MOL      0.260152
    111 H47         2.4110    0.8420   -1.1560 h1        1 MOL      0.063898
    112 H48         3.9330    3.4190   -1.4990 hc        1 MOL      0.084148
    113 H49         1.8560    3.1170   -2.9010 hc        1 MOL     -0.000552
    114 H50         2.5230    1.6360   -3.5970 hc        1 MOL     -0.000552
    115 H51         5.2860    1.8560   -3.2800 hc        1 MOL     -0.015507
    116 H52         5.6360    2.2210   -1.6200 hc        1 MOL     -0.015507
    117 H53         4.9160    0.6500   -1.9990 hc        1 MOL     -0.015507
    118 H54         3.6320    4.4650   -3.7910 hc        1 MOL      0.151653
    119 H55         4.1160    2.8820   -4.8150 hc        1 MOL      0.151653
    120 H56         2.6640    3.6390   -5.0120 hc        1 MOL      0.151653
    121 N11         3.6980    2.5570    1.2940 n         1 MOL     -0.059428
    122 C40         4.2770    2.5100    2.6420 c3        1 MOL     -0.194746
    123 C41         5.6720    1.9240    2.6130 c         1 MOL      0.504927
    124 O16         5.9490    1.1200    3.4590 o         1 MOL     -0.511030
    125 C42         4.2310    3.9400    3.2220 c3        1 MOL      0.136911
    126 O17         4.7630    4.8020    2.3400 oh        1 MOL     -0.613494
    127 H57         3.4650    3.4750    0.9330 hn        1 MOL      0.189619
    128 H58         3.7050    1.8020    3.2350 h1        1 MOL      0.109672
    129 H59         4.7160    4.0040    4.1970 h1        1 MOL      0.048689
    130 H60         3.1870    4.1810    3.4160 h1        1 MOL      0.048689
    131 H61         4.2390    5.6050    2.3330 ho        1 MOL      0.433072
    132 N12         6.4740    2.2990    1.5140 n         1 MOL     -0.087085
    133 C43         7.9050    1.9720    1.3770 c3        1 MOL      0.068908
    134 C44         8.1720    0.4610    1.5610 c         1 MOL      0.381860
    135 O18         9.2550    0.0800    2.0420 o         1 MOL     -0.503439
    136 C45         8.7640    2.8530    2.3220 c3        1 MOL     -0.375486
    137 H62         6.1620    3.0700    0.9470 hn        1 MOL      0.168652
    138 H63         8.1740    2.2280    0.3490 h1        1 MOL      0.049814
    139 H64         8.6060    3.9340    2.2560 hc        1 MOL      0.111007
    140 H65         8.5750    2.6040    3.3660 hc        1 MOL      0.111007
    141 H66         9.8270    2.6390    2.2370 hc        1 MOL      0.111007
    142 N13         7.0880   -0.3080    1.3170 n         1 MOL     -0.154468
    143 C46         7.0600   -1.7190    1.2450 c3        1 MOL      0.167570
    144 C47         6.6150   -2.2040   -0.1290 c         1 MOL      0.433720
    145 O19         6.2010   -1.4650   -1.0100 o         1 MOL     -0.414631
    146 C48         6.0370   -2.1160    2.2710 c3        1 MOL     -0.027876
    147 H67         6.3480    0.1480    0.8110 hn        1 MOL     -0.034656
    148 H68         8.0430   -2.1540    1.3750 h1        1 MOL      0.011105
    149 H69         6.3970   -1.9690    3.2880 hc        1 MOL      0.015799
    150 H70         5.0440   -1.6940    2.0660 hc        1 MOL      0.015799
    151 H71         5.8500   -3.1850    2.3510 hc        1 MOL      0.015799
    152 N14         6.7220   -3.5060   -0.3710 n         1 MOL     -0.454022
    153 C49         6.4100   -4.2380   -1.6340 c3        1 MOL      0.118122
    154 C50         7.0520   -3.5770   -2.8850 c         1 MOL      0.364281
    155 O20         6.4620   -3.6160   -3.9940 o         1 MOL     -0.471737
    156 C51         4.9570   -4.5610   -1.7580 c3        1 MOL      0.097022
    157 C52         4.4410   -5.5750   -0.7290 c3        1 MOL     -0.083408
    158 C53         3.0910   -6.0850   -1.0410 c         1 MOL      0.764432
    159 O21         2.1510   -5.4040   -1.5000 o         1 MOL     -0.764156
    160 O22         2.7940   -7.2860   -0.8730 o         1 MOL     -0.764156
    161 H72         7.0590   -4.1370    0.3530 hn        1 MOL      0.257997
    162 H73         7.0100   -5.1340   -1.5520 h1        1 MOL      0.041323
    163 H74         4.8130   -4.9840   -2.7490 hc        1 MOL      0.005899
    164 H75         4.4190   -3.6080   -1.7630 hc        1 MOL      0.005899
    165 H76         4.4780   -5.1560    0.2750 hc        1 MOL     -0.007052
    166 H77         5.1940   -6.3710   -0.7860 hc        1 MOL     -0.007052
    167 N15         8.2740   -2.9400   -2.8830 n         1 MOL     -0.391594
    168 C54         8.5670   -2.0610   -4.0600 c3        1 MOL     -0.042243
    169 H78         8.1180   -1.0810   -3.9000 h1        1 MOL      0.071253
    170 H79         9.6460   -1.9530   -4.1740 h1        1 MOL      0.071253
    171 H80         8.1490   -2.5090   -4.9620 h1        1 MOL      0.071253
    172 H81         8.7890   -2.9350   -2.0120 hn        1 MOL      0.265165
    173 Ca1        -0.2790   -4.7700   -1.0420 Ca        1 MOL      1.718687
    174 O23         0.0870   -7.2390   -1.5640 oh        1 MOL     -0.799014
    175 H82         1.0170   -7.3430   -1.3600 ho        1 MOL      0.399145
    176 H83        -0.1070   -7.9290   -2.1890 ho        1 MOL      0.399145
    177 O24        -0.2230   -4.9570   -3.7090 oh        1 MOL     -0.799014
    178 H84         0.7020   -5.0650   -3.9370 ho        1 MOL      0.399145
    179 H85        -0.6990   -5.2420   -4.4960 ho        1 MOL      0.399145
    180 O25         1.0300   -2.6320   -1.9940 oh        1 MOL     -0.799014
    181 H86         1.8760   -2.1870   -1.8690 ho        1 MOL      0.399145
    182 H87         0.3820   -1.9460   -1.8740 ho        1 MOL      0.399145
    183 O26        -0.5730   -6.2640    1.1740 oh        1 MOL     -0.799014
    184 H88        -0.8960   -5.8390    1.9640 ho        1 MOL      0.399145
    185 H89         0.2810   -6.6230    1.4240 ho        1 MOL      0.399145
    186 O27        -2.6400   -6.0360   -1.4140 oh        1 MOL     -0.799014
    187 H90        -3.3050   -5.7700   -0.7800 ho        1 MOL      0.399145
    188 H91        -3.0290   -5.8610   -2.2680 ho        1 MOL      0.399145
@<TRIPOS>BOND
     1    1    2 1   
     2    1    4 1   
     3    1    5 1   
     4    1    6 1   
     5    2    3 2   
     6    2    7 1   
     7    7    8 1   
     8    7   15 1   
     9    8    9 1   
    10    8   11 1   
    11    8   16 1   
    12    9   10 2   
    13    9   19 1   
    14   11   12 1   
    15   11   17 1   
    16   11   18 1   
    17   12   13 1   
    18   12   14 1   
    19   19   20 1   
    20   19   28 1   
    21   20   21 1   
    22   20   23 1   
    23   20   29 1   
    24   21   22 2   
    25   21   41 1   
    26   23   24 1   
    27   23   30 1   
    28   23   31 1   
    29   24   25 1   
    30   24   32 1   
    31   24   33 1   
    32   25   26 1   
    33   25   34 1   
    34   25   35 1   
    35   26   27 1   
    36   26   36 1   
    37   26   37 1   
    38   27   38 1   
    39   27   39 1   
    40   27   40 1   
    41   41   42 1   
    42   41   49 1   
    43   42   43 1   
    44   42   45 1   
    45   42   50 1   
    46   43   44 2   
    47   43   53 1   
    48   45   46 1   
    49   45   51 1   
    50   45   52 1   
    51   46   47 1   
    52   46   48 1   
    53   53   54 1   
    54   53   57 1   
    55   54   55 1   
    56   54   58 1   
    57   54   59 1   
    58   55   56 2   
    59   55   60 1   
    60   60   61 1   
    61   60   68 1   
    62   61   62 1   
    63   61   64 1   
    64   61   69 1   
    65   62   63 2   
    66   62   74 1   
    67   64   65 1   
    68   64   70 1   
    69   64   71 1   
    70   65   66 1   
    71   65   67 2   
    72   66   72 1   
    73   66   73 1   
    74   74   75 1   
    75   74   78 1   
    76   75   76 1   
    77   75   79 1   
    78   75   80 1   
    79   76   77 2   
    80   76   81 1   
    81   81   82 1   
    82   81   93 1   
    83   82   83 1   
    84   82   85 1   
    85   82   94 1   
    86   83   84 2   
    87   83  102 1   
    88   85   86 1   
    89   85   95 1   
    90   85   96 1   
    91   86   87 ar  
    92   86   88 ar  
    93   87   89 ar  
    94   87   97 1   
    95   88   90 ar  
    96   88   98 1   
    97   89   91 ar  
    98   89   99 1   
    99   90   91 ar  
   100   90  100 1   
   101   91   92 1   
   102   92  101 1   
   103  102  103 1   
   104  102  110 1   
   105  103  104 1   
   106  103  106 1   
   107  103  111 1   
   108  104  105 2   
   109  104  121 1   
   110  106  107 1   
   111  106  108 1   
   112  106  112 1   
   113  107  109 1   
   114  107  113 1   
   115  107  114 1   
   116  108  115 1   
   117  108  116 1   
   118  108  117 1   
   119  109  118 1   
   120  109  119 1   
   121  109  120 1   
   122  121  122 1   
   123  121  127 1   
   124  122  123 1   
   125  122  125 1   
   126  122  128 1   
   127  123  124 2   
   128  123  132 1   
   129  125  126 1   
   130  125  129 1   
   131  125  130 1   
   132  126  131 1   
   133  132  133 1   
   134  132  137 1   
   135  133  134 1   
   136  133  136 1   
   137  133  138 1   
   138  134  135 2   
   139  134  142 1   
   140  136  139 1   
   141  136  140 1   
   142  136  141 1   
   143  142  143 1   
   144  142  147 1   
   145  143  144 1   
   146  143  146 1   
   147  143  148 1   
   148  144  145 2   
   149  144  152 1   
   150  146  149 1   
   151  146  150 1   
   152  146  151 1   
   153  152  153 1   
   154  152  161 1   
   155  153  154 1   
   156  153  156 1   
   157  153  162 1   
   158  154  155 2   
   159  154  167 1   
   160  156  157 1   
   161  156  163 1   
   162  156  164 1   
   163  157  158 1   
   164  157  165 1   
   165  157  166 1   
   166  158  159 1   
   167  158  160 1   
   168  167  168 1   
   169  167  172 1   
   170  168  169 1   
   171  168  170 1   
   172  168  171 1   
   173  174  175 1   
   174  174  176 1   
   175  177  178 1   
   176  177  179 1   
   177  180  181 1   
   178  180  182 1   
   179  183  184 1   
   180  183  185 1   
   181  186  187 1   
   182  186  188 1   
@<TRIPOS>SUBSTRUCTURE
     1 MOL         1 TEMP              0 ****  ****    0 ROOT
