@<TRIPOS>MOLECULE
MOL
  195   189     1     0     0
SMALL
resp


@<TRIPOS>ATOM
      1 C1          6.5280    1.5970    5.4130 c3        1 MOL     -0.396804
      2 C2          5.8690    1.3730    4.0200 c         1 MOL      0.841887
      3 O1          5.3160    2.2900    3.4890 o         1 MOL     -0.630775
      4 H1          6.4830    0.6720    5.9890 hc        1 MOL      0.097243
      5 H2          7.5690    1.8920    5.2800 hc        1 MOL      0.097243
      6 H3          5.9940    2.3830    5.9460 hc        1 MOL      0.097243
      7 N1          5.7610    0.1110    3.6360 n         1 MOL     -0.685936
      8 C3          5.3210   -0.3820    2.2790 c3        1 MOL      0.294884
      9 C4          3.8260   -0.1430    2.0470 c         1 MOL      0.158209
     10 O2          3.3500   -0.5540    1.0130 o         1 MOL     -0.231642
     11 C5          5.8170   -1.8630    2.1220 c3        1 MOL     -0.204580
     12 C6          7.3270   -2.0820    2.3410 c         1 MOL      0.688109
     13 O3          7.8030   -2.1560    3.5440 o         1 MOL     -0.677335
     14 O4          7.9690   -2.4250    1.3380 o         1 MOL     -0.677335
     15 H4          6.3360   -0.5630    4.1370 hn        1 MOL      0.280572
     16 H5          5.8900    0.1920    1.5390 h1        1 MOL      0.079331
     17 H6          5.5640   -2.2720    1.1460 hc        1 MOL      0.023098
     18 H7          5.3480   -2.3990    2.9560 hc        1 MOL      0.023098
     19 N2          3.0860    0.4700    3.0000 n         1 MOL     -0.313202
     20 C7          1.5980    0.4100    3.0020 c3        1 MOL      0.113544
     21 C8          1.0220    1.8210    2.6640 c         1 MOL      0.259586
     22 O5          1.4030    2.7840    3.3530 o         1 MOL     -0.466648
     23 C9          0.9980   -0.0780    4.3330 c3        1 MOL     -0.091718
     24 C10         1.3930   -1.4930    4.8390 c3        1 MOL     -0.143800
     25 C11         0.6120   -2.4520    3.9780 c3        1 MOL      0.056927
     26 C12         0.6080   -3.8760    4.6260 c3        1 MOL     -0.059701
     27 N3          0.3440   -4.9220    3.5640 n4        1 MOL     -0.147460
     28 H8          3.6020    0.9200    3.7310 hn        1 MOL      0.281579
     29 H9          1.3060   -0.2950    2.2280 h1        1 MOL      0.251643
     30 H10        -0.0910   -0.0020    4.2810 hc        1 MOL      0.067294
     31 H11         1.2990    0.6610    5.0770 hc        1 MOL      0.067294
     32 H12         1.1410   -1.6100    5.8860 hc        1 MOL      0.052382
     33 H13         2.4530   -1.7390    4.7980 hc        1 MOL      0.052382
     34 H14         1.1700   -2.5460    3.0460 hc        1 MOL      0.041984
     35 H15        -0.4090   -2.1770    3.7450 hc        1 MOL      0.041984
     36 H16        -0.1680   -4.0880    5.3630 hx        1 MOL      0.083471
     37 H17         1.5730   -4.1210    5.0680 hx        1 MOL      0.083471
     38 H18         1.0450   -5.0380    2.8360 hn        1 MOL      0.253461
     39 H19         0.3100   -5.8910    3.8710 hn        1 MOL      0.253461
     40 H20        -0.5040   -4.6870    3.0740 hn        1 MOL      0.253461
     41 N4          0.0910    2.0340    1.7140 n         1 MOL      0.010550
     42 C13        -0.5490    0.9530    0.8720 c3        1 MOL     -0.677923
     43 C14        -1.1910   -0.2320    1.6170 c         1 MOL      0.359898
     44 O6         -0.7290   -1.3350    1.5990 o         1 MOL     -0.514773
     45 C15         0.1450    0.6050   -0.3950 c3        1 MOL     -0.577497
     46 C16         0.1850    1.7270   -1.4430 c         1 MOL      0.691847
     47 O7         -0.4280    2.8400   -1.2940 o         1 MOL     -0.684541
     48 O8          0.8550    1.5270   -2.4690 o         1 MOL     -0.684541
     49 H21        -0.0710    3.0090    1.4820 hn        1 MOL      0.143198
     50 H22        -1.4990    1.3580    0.5080 h1        1 MOL      0.146175
     51 H23        -0.3880   -0.2840   -0.7070 hc        1 MOL      0.344649
     52 H24         1.1420    0.2730   -0.1090 hc        1 MOL      0.344649
     53 N5         -2.2570   -0.0320    2.2880 n         1 MOL     -0.145960
     54 C17        -3.0930    1.1860    2.3750 c3        1 MOL     -0.038612
     55 C18        -4.3780    0.9810    3.0930 c         1 MOL      0.448057
     56 O9         -4.4960    0.0610    3.9210 o         1 MOL     -0.533126
     57 H25        -2.6500   -0.7720    2.8540 hn        1 MOL      0.219537
     58 H26        -3.4020    1.2760    1.3370 h1        1 MOL      0.093164
     59 H27        -2.5880    2.0380    2.8110 h1        1 MOL      0.093164
     60 N6         -5.3700    1.8700    2.8860 n         1 MOL     -0.411200
     61 C19        -5.4460    3.0420    2.0700 c3        1 MOL      0.240176
     62 C20        -6.1440    2.6150    0.7630 c         1 MOL      0.466671
     63 O10        -6.9180    1.5970    0.7830 o         1 MOL     -0.443723
     64 C21        -6.2130    4.1870    2.7410 c3        1 MOL     -0.285342
     65 C22        -7.6160    3.9830    3.2080 c         1 MOL      0.715055
     66 O11        -8.1150    2.8480    3.4800 o         1 MOL     -0.658191
     67 O12        -8.3490    5.0090    3.2550 o         1 MOL     -0.658191
     68 H28        -6.2130    1.5700    3.3540 hn        1 MOL      0.290446
     69 H29        -4.4520    3.4380    1.9000 h1        1 MOL     -0.041708
     70 H30        -6.1870    5.0170    2.0350 hc        1 MOL      0.042840
     71 H31        -5.6930    4.4710    3.6470 hc        1 MOL      0.042840
     72 N7         -5.8180    3.3920   -0.3030 n         1 MOL     -0.171171
     73 C23        -6.2520    3.2130   -1.6770 c3        1 MOL     -0.493903
     74 C24        -5.9780    1.7260   -2.1370 c         1 MOL      0.564346
     75 O13        -6.7650    1.2740   -2.9490 o         1 MOL     -0.545764
     76 H32        -5.0840    4.0680   -0.1160 hn        1 MOL      0.124013
     77 H33        -5.7360    3.8700   -2.3810 h1        1 MOL      0.204138
     78 H34        -7.3250    3.3730   -1.6460 h1        1 MOL      0.204138
     79 N8         -4.9510    1.0920   -1.6260 n         1 MOL     -0.314661
     80 C25        -4.4610   -0.3430   -1.9160 c3        1 MOL     -0.000843
     81 C26        -4.6400   -1.2220   -0.7170 c         1 MOL      0.280973
     82 O14        -4.2780   -0.9570    0.4480 o         1 MOL     -0.407313
     83 C27        -2.9590   -0.3420   -2.3530 c3        1 MOL      0.276573
     84 C28        -2.6180    0.6720   -3.4520 c3        1 MOL     -0.248591
     85 O15        -2.5580   -1.6240   -2.8290 oh        1 MOL     -0.598361
     86 H35        -4.3120    1.6260   -1.0390 hn        1 MOL      0.132703
     87 H36        -4.9990   -0.8040   -2.7480 h1        1 MOL      0.096373
     88 H37        -2.4690   -0.1010   -1.4100 h1        1 MOL      0.191259
     89 H38        -1.8420   -1.9070   -2.2570 ho        1 MOL      0.336350
     90 H39        -1.5810    0.4410   -3.6910 hc        1 MOL      0.069717
     91 H40        -3.2700    0.5510   -4.3200 hc        1 MOL      0.069717
     92 H41        -2.6910    1.7000   -3.0970 hc        1 MOL      0.069717
     93 N9         -5.3540   -2.3340   -0.9390 n         1 MOL     -0.047305
     94 C29        -5.4960   -3.5210   -0.0570 c3        1 MOL     -0.655506
     95 C30        -4.2480   -4.4760   -0.0690 c         1 MOL      0.652285
     96 O16        -4.1680   -5.3750    0.7570 o         1 MOL     -0.572345
     97 C31        -6.8490   -4.2710   -0.1920 c3        1 MOL      0.485522
     98 C32        -6.9500   -5.1340   -1.4870 c3        1 MOL     -0.052928
     99 C33        -8.0970   -3.3810    0.0520 c3        1 MOL     -0.406789
    100 C34        -8.1890   -6.0890   -1.5160 c3        1 MOL     -0.244077
    101 H42        -5.7400   -2.3410   -1.8780 hn        1 MOL      0.199436
    102 H43        -5.4230   -3.1890    0.9760 h1        1 MOL      0.240175
    103 H44        -6.8990   -4.9540    0.6490 hc        1 MOL     -0.020084
    104 H45        -6.0510   -5.7390   -1.6310 hc        1 MOL      0.035709
    105 H46        -7.1200   -4.4660   -2.3250 hc        1 MOL      0.035709
    106 H47        -7.8090   -2.5230    0.6460 hc        1 MOL      0.105146
    107 H48        -8.4560   -2.9950   -0.8970 hc        1 MOL      0.105146
    108 H49        -8.8600   -3.9240    0.6210 hc        1 MOL      0.105146
    109 H50        -9.0010   -5.6040   -2.0550 hc        1 MOL      0.058220
    110 H51        -7.9430   -7.0170   -2.0370 hc        1 MOL      0.058220
    111 H52        -8.5100   -6.2600   -0.4920 hc        1 MOL      0.058220
    112 N10        -3.2870   -4.2110   -0.9240 n         1 MOL     -0.305817
    113 C35        -1.9620   -4.8760   -1.0740 c3        1 MOL      0.221927
    114 C36        -0.8140   -3.8740   -0.9700 c         1 MOL      0.283679
    115 O17        -1.0100   -2.7000   -1.2400 o         1 MOL     -0.304794
    116 C37        -1.7330   -5.7670   -2.3260 c3        1 MOL      0.201456
    117 C38        -1.7130   -4.9390   -3.5840 c3        1 MOL     -0.410588
    118 O18        -2.8710   -6.5910   -2.2710 oh        1 MOL     -0.606746
    119 H53        -3.4110   -3.4750   -1.6080 hn        1 MOL      0.115347
    120 H54        -1.8900   -5.5880   -0.2460 h1        1 MOL      0.024209
    121 H55        -0.8150   -6.3500   -2.2070 h1        1 MOL      0.033653
    122 H56        -2.9400   -7.0290   -3.1290 ho        1 MOL      0.405166
    123 H57        -2.6550   -4.4730   -3.8630 hc        1 MOL      0.124645
    124 H58        -0.8750   -4.2460   -3.4810 hc        1 MOL      0.124645
    125 H59        -1.5270   -5.6350   -4.4100 hc        1 MOL      0.124645
    126 N11         0.4110   -4.2440   -0.5770 n         1 MOL     -0.460762
    127 C39         1.5260   -3.3300   -0.4000 c3        1 MOL      0.067010
    128 C40         2.0040   -2.7560   -1.7080 c         1 MOL      0.473533
    129 O19         1.6690   -3.2160   -2.8240 o         1 MOL     -0.531444
    130 C41         2.6420   -4.0520    0.2880 c3        1 MOL      0.276261
    131 C42         3.0950   -5.3420   -0.3360 c3        1 MOL     -0.357947
    132 O20         2.4010   -4.3740    1.6240 oh        1 MOL     -0.625003
    133 H60         0.5170   -5.2260   -0.3720 hn        1 MOL      0.283925
    134 H61         1.2100   -2.4360    0.1260 h1        1 MOL      0.170397
    135 H62         3.5270   -3.4130    0.3330 h1        1 MOL      0.140016
    136 H63         3.2680   -4.4330    2.0400 ho        1 MOL      0.396408
    137 H64         3.9100   -5.7640    0.2570 hc        1 MOL      0.093213
    138 H65         2.2580   -6.0410   -0.3570 hc        1 MOL      0.093213
    139 H66         3.4920   -5.1540   -1.3390 hc        1 MOL      0.093213
    140 N12         2.7480   -1.6540   -1.6050 n         1 MOL      0.228643
    141 C43         3.5350   -1.0270   -2.7590 c3        1 MOL     -0.128473
    142 C44         3.8660    0.4720   -2.6700 c         1 MOL      0.731566
    143 O21         4.2250    1.0930   -3.6940 o         1 MOL     -0.633837
    144 C45         4.7790   -1.8900   -3.0570 c3        1 MOL      0.149205
    145 C46         5.8920   -1.7580   -1.9860 c3        1 MOL     -0.204167
    146 C47         7.1600   -2.6890   -1.9990 c3        1 MOL      0.078538
    147 C48         7.9380   -2.6710   -3.3870 c3        1 MOL      0.100315
    148 N13         8.7860   -3.8530   -3.6620 n4        1 MOL     -0.467367
    149 H67         2.7790   -1.1590   -0.7190 hn        1 MOL     -1.011136
    150 H68         2.9200   -1.0690   -3.6610 h1        1 MOL      0.103637
    151 H69         5.1860   -1.5820   -4.0170 hc        1 MOL     -0.050304
    152 H70         4.3790   -2.9000   -3.1170 hc        1 MOL     -0.050304
    153 H71         5.4100   -1.8200   -1.0080 hc        1 MOL      0.072531
    154 H72         6.2500   -0.7290   -2.0500 hc        1 MOL      0.072531
    155 H73         6.8090   -3.7110   -1.8260 hc        1 MOL      0.018440
    156 H74         7.7980   -2.4550   -1.1550 hc        1 MOL      0.018440
    157 H75         8.4830   -1.7480   -3.5820 hx        1 MOL      0.066989
    158 H76         7.1730   -2.6560   -4.1620 hx        1 MOL      0.066989
    159 H77         8.2340   -4.7070   -3.6870 hn        1 MOL      0.348808
    160 H78         9.1230   -3.7750   -4.6110 hn        1 MOL      0.348808
    161 H79         9.5740   -3.9220   -3.0320 hn        1 MOL      0.348808
    162 N14         3.6750    1.0630   -1.5420 n         1 MOL      0.011948
    163 C49         3.9850    2.4300   -1.2250 c3        1 MOL     -1.171717
    164 C50         5.4550    2.9060   -1.3280 c         1 MOL      0.807476
    165 O22         6.3110    2.3040   -0.6880 o         1 MOL     -0.556961
    166 C51         3.4850    2.7130    0.2220 c3        1 MOL      0.832657
    167 C52         3.4940    4.1750    0.6910 c3        1 MOL     -0.198676
    168 C53         2.8850    5.0970   -0.2880 c         1 MOL      0.585178
    169 O23         1.6550    5.0310   -0.4400 o         1 MOL     -0.719834
    170 O24         3.6130    5.7450   -1.0980 o         1 MOL     -0.719834
    171 H80         3.3140    0.4500   -0.8240 hn        1 MOL      0.429915
    172 H81         3.2810    3.0290   -1.8030 h1        1 MOL      0.354412
    173 H82         4.0770    2.0870    0.8890 hc        1 MOL     -0.157362
    174 H83         2.4300    2.4300    0.2370 hc        1 MOL     -0.157362
    175 H84         4.5230    4.4900    0.8440 hc        1 MOL      0.055134
    176 H85         2.8080    4.2880    1.5370 hc        1 MOL      0.055134
    177 N15         5.7280    4.0080   -2.0400 n         1 MOL     -0.360980
    178 C54         7.1140    4.5660   -2.1720 c3        1 MOL     -0.246733
    179 H86         7.0930    5.4370   -2.8270 h1        1 MOL      0.107486
    180 H87         7.4830    4.8610   -1.1890 h1        1 MOL      0.107486
    181 H88         7.7730    3.8080   -2.5960 h1        1 MOL      0.107486
    182 H89         5.0210    4.5880   -2.4540 hn        1 MOL      0.358454
    183 Ca1        -0.6170    5.3350   -1.5380 Ca        1 MOL      1.665848
    184 O25        -2.0920    7.4380   -2.4130 oh        1 MOL     -0.805560
    185 H90        -2.5460    7.8510   -1.6810 ho        1 MOL      0.399520
    186 H91        -2.6600    7.6000   -3.1660 ho        1 MOL      0.399520
    187 O26         0.5750    4.1790   -3.6290 oh        1 MOL     -0.805560
    188 H92         0.8050    4.2700   -4.5590 ho        1 MOL      0.399520
    189 H93         0.8360    3.2860   -3.4050 ho        1 MOL      0.399520
    190 O27        -2.8890    4.8150   -3.2730 oh        1 MOL     -0.805560
    191 H94        -3.0100    4.0580   -3.8420 ho        1 MOL      0.399520
    192 H95        -3.6880    5.3220   -3.3580 ho        1 MOL      0.399520
    193 O28         1.1430    6.9010   -2.7270 oh        1 MOL     -0.805560
    194 H96         1.7790    7.2210   -2.0870 ho        1 MOL      0.399520
    195 H97         0.8410    7.6930   -3.1800 ho        1 MOL      0.399520
@<TRIPOS>BOND
     1    1    2 1   
     2    1    4 1   
     3    1    5 1   
     4    1    6 1   
     5    2    3 2   
     6    2    7 1   
     7    7    8 1   
     8    7   15 1   
     9    8    9 1   
    10    8   11 1   
    11    8   16 1   
    12    9   10 2   
    13    9   19 1   
    14   11   12 1   
    15   11   17 1   
    16   11   18 1   
    17   12   13 1   
    18   12   14 1   
    19   19   20 1   
    20   19   28 1   
    21   20   21 1   
    22   20   23 1   
    23   20   29 1   
    24   21   22 2   
    25   21   41 1   
    26   23   24 1   
    27   23   30 1   
    28   23   31 1   
    29   24   25 1   
    30   24   32 1   
    31   24   33 1   
    32   25   26 1   
    33   25   34 1   
    34   25   35 1   
    35   26   27 1   
    36   26   36 1   
    37   26   37 1   
    38   27   38 1   
    39   27   39 1   
    40   27   40 1   
    41   41   42 1   
    42   41   49 1   
    43   42   43 1   
    44   42   45 1   
    45   42   50 1   
    46   43   44 2   
    47   43   53 1   
    48   45   46 1   
    49   45   51 1   
    50   45   52 1   
    51   46   47 1   
    52   46   48 1   
    53   53   54 1   
    54   53   57 1   
    55   54   55 1   
    56   54   58 1   
    57   54   59 1   
    58   55   56 2   
    59   55   60 1   
    60   60   61 1   
    61   60   68 1   
    62   61   62 1   
    63   61   64 1   
    64   61   69 1   
    65   62   63 2   
    66   62   72 1   
    67   64   65 1   
    68   64   70 1   
    69   64   71 1   
    70   65   66 1   
    71   65   67 1   
    72   72   73 1   
    73   72   76 1   
    74   73   74 1   
    75   73   77 1   
    76   73   78 1   
    77   74   75 2   
    78   74   79 1   
    79   79   80 1   
    80   79   86 1   
    81   80   81 1   
    82   80   83 1   
    83   80   87 1   
    84   81   82 2   
    85   81   93 1   
    86   83   84 1   
    87   83   85 1   
    88   83   88 1   
    89   84   90 1   
    90   84   91 1   
    91   84   92 1   
    92   85   89 1   
    93   93   94 1   
    94   93  101 1   
    95   94   95 1   
    96   94   97 1   
    97   94  102 1   
    98   95   96 2   
    99   95  112 1   
   100   97   98 1   
   101   97   99 1   
   102   97  103 1   
   103   98  100 1   
   104   98  104 1   
   105   98  105 1   
   106   99  106 1   
   107   99  107 1   
   108   99  108 1   
   109  100  109 1   
   110  100  110 1   
   111  100  111 1   
   112  112  113 1   
   113  112  119 1   
   114  113  114 1   
   115  113  116 1   
   116  113  120 1   
   117  114  115 2   
   118  114  126 1   
   119  116  117 1   
   120  116  118 1   
   121  116  121 1   
   122  117  123 1   
   123  117  124 1   
   124  117  125 1   
   125  118  122 1   
   126  126  127 1   
   127  126  133 1   
   128  127  128 1   
   129  127  130 1   
   130  127  134 1   
   131  128  129 2   
   132  128  140 1   
   133  130  131 1   
   134  130  132 1   
   135  130  135 1   
   136  131  137 1   
   137  131  138 1   
   138  131  139 1   
   139  132  136 1   
   140  140  141 1   
   141  140  149 1   
   142  141  142 1   
   143  141  144 1   
   144  141  150 1   
   145  142  143 2   
   146  142  162 1   
   147  144  145 1   
   148  144  151 1   
   149  144  152 1   
   150  145  146 1   
   151  145  153 1   
   152  145  154 1   
   153  146  147 1   
   154  146  155 1   
   155  146  156 1   
   156  147  148 1   
   157  147  157 1   
   158  147  158 1   
   159  148  159 1   
   160  148  160 1   
   161  148  161 1   
   162  162  163 1   
   163  162  171 1   
   164  163  164 1   
   165  163  166 1   
   166  163  172 1   
   167  164  165 2   
   168  164  177 1   
   169  166  167 1   
   170  166  173 1   
   171  166  174 1   
   172  167  168 1   
   173  167  175 1   
   174  167  176 1   
   175  168  169 1   
   176  168  170 1   
   177  177  178 1   
   178  177  182 1   
   179  178  179 1   
   180  178  180 1   
   181  178  181 1   
   182  184  185 1   
   183  184  186 1   
   184  187  188 1   
   185  187  189 1   
   186  190  191 1   
   187  190  192 1   
   188  193  194 1   
   189  193  195 1   
@<TRIPOS>SUBSTRUCTURE
     1 MOL         1 TEMP              0 ****  ****    0 ROOT
