@<TRIPOS>MOLECULE
MOL
  191   184     1     0     0
SMALL
resp


@<TRIPOS>ATOM
      1 C1         -6.1890   -1.0100    4.7040 c3        1 MOL     -0.369981
      2 C2         -6.3120   -1.1910    3.1840 c         1 MOL      0.649323
      3 O1         -5.6630   -0.5140    2.4460 o         1 MOL     -0.527495
      4 H1         -7.1830   -0.8970    5.1380 hc        1 MOL      0.093777
      5 H2         -5.7020   -1.8830    5.1370 hc        1 MOL      0.093777
      6 H3         -5.5970   -0.1200    4.9170 hc        1 MOL      0.093777
      7 N1         -7.1530   -2.1260    2.7270 n         1 MOL     -0.588272
      8 C3         -7.4830   -2.5820    1.3140 c3        1 MOL      0.216747
      9 C4         -8.2660   -1.4420    0.4290 c         1 MOL      0.267252
     10 O2         -9.1760   -1.7080   -0.3900 o         1 MOL     -0.455429
     11 C5         -6.2910   -3.1130    0.6270 c3        1 MOL     -0.144597
     12 C6         -6.7360   -3.8830   -0.6120 c         1 MOL      0.750750
     13 O3         -7.2680   -4.9840   -0.4960 o         1 MOL     -0.664241
     14 O4         -6.4680   -3.3820   -1.7250 o         1 MOL     -0.664241
     15 H4         -7.5710   -2.7230    3.4390 hn        1 MOL      0.320844
     16 H5         -8.1090   -3.4720    1.3580 h1        1 MOL      0.034287
     17 H6         -5.7460   -3.8570    1.2130 hc        1 MOL      0.024648
     18 H7         -5.5830   -2.3290    0.3850 hc        1 MOL      0.024648
     19 N2         -7.8040   -0.2040    0.5880 n         1 MOL     -0.043624
     20 C7         -8.1620    1.0380   -0.1560 c3        1 MOL      0.036046
     21 C8         -6.9670    1.8420   -0.6490 c         1 MOL      0.521814
     22 O5         -7.0520    2.9320   -1.2160 o         1 MOL     -0.551781
     23 C9         -9.0840    2.0180    0.6820 c3        1 MOL     -0.370013
     24 C10        -8.1970    2.7360    1.8470 c3        1 MOL     -0.115124
     25 C11        -8.9950    3.5520    2.9230 c3        1 MOL      0.017737
     26 C12        -8.1900    4.4040    3.9030 c3        1 MOL     -0.127988
     27 N3         -7.1680    3.5970    4.6530 n4        1 MOL     -0.213576
     28 H8         -6.9890   -0.1790    1.1840 hn        1 MOL     -0.078656
     29 H9         -8.7240    0.7550   -1.0440 h1        1 MOL      0.129071
     30 H10        -9.9170    1.4160    1.0460 hc        1 MOL      0.151024
     31 H11        -9.4490    2.8250    0.0430 hc        1 MOL      0.151024
     32 H12        -7.5270    3.4830    1.4200 hc        1 MOL      0.098178
     33 H13        -7.4680    2.0590    2.2790 hc        1 MOL      0.098178
     34 H14        -9.5300    2.8710    3.5870 hc        1 MOL      0.038414
     35 H15        -9.7390    4.1380    2.3940 hc        1 MOL      0.038414
     36 H16        -8.9370    4.7100    4.6260 hx        1 MOL      0.119785
     37 H17        -7.8160    5.3250    3.4450 hx        1 MOL      0.119785
     38 H18        -6.4620    3.2410    4.0270 hn        1 MOL      0.230346
     39 H19        -6.7550    4.1990    5.3550 hn        1 MOL      0.230346
     40 H20        -7.5750    2.7680    5.0660 hn        1 MOL      0.230346
     41 N4         -5.7530    1.3600   -0.3210 n         1 MOL     -0.427543
     42 C13        -4.5150    2.0450   -0.7560 c3        1 MOL     -0.006019
     43 C14        -4.1350    1.8750   -2.2120 c         1 MOL      0.735370
     44 O6         -4.4680    0.8050   -2.7210 o         1 MOL     -0.539144
     45 C15        -3.3120    1.5520    0.0650 c3        1 MOL      0.050947
     46 C16        -2.1540    2.5140   -0.1180 c         1 MOL      0.419147
     47 O7         -1.3640    2.3010   -1.0560 o         1 MOL     -0.637537
     48 O8         -1.9080    3.4680    0.6590 o         1 MOL     -0.637537
     49 H21        -5.6370    0.5180    0.2170 hn        1 MOL      0.309515
     50 H22        -4.6820    3.1190   -0.6650 h1        1 MOL      0.015044
     51 H23        -3.0190    0.5800   -0.3430 hc        1 MOL     -0.006476
     52 H24        -3.6210    1.4850    1.1070 hc        1 MOL     -0.006476
     53 N5         -3.6300    2.8770   -2.8620 n         1 MOL     -0.465655
     54 C17        -3.3420    2.9360   -4.2810 c3        1 MOL     -0.230947
     55 C18        -2.3630    1.8820   -4.8050 c         1 MOL      0.442405
     56 O9         -2.3280    1.6470   -5.9990 o         1 MOL     -0.564489
     57 H25        -3.2040    3.6000   -2.3110 hn        1 MOL      0.324383
     58 H26        -2.9630    3.9270   -4.5150 h1        1 MOL      0.149408
     59 H27        -4.2670    2.6930   -4.7920 h1        1 MOL      0.149408
     60 N6         -1.4990    1.2780   -4.0550 n         1 MOL      0.033524
     61 C19        -0.4510    0.3170   -4.3520 c3        1 MOL     -0.141560
     62 C20        -1.0910   -1.1080   -4.1490 c         1 MOL      0.477883
     63 O10        -0.3380   -2.1080   -4.1150 o         1 MOL     -0.500656
     64 C21         0.6540    0.5080   -3.3540 c3        1 MOL     -0.094900
     65 C22         1.3760    1.8100   -3.5360 c         1 MOL      0.751783
     66 N7          2.3560    1.9100   -4.3740 n         1 MOL     -0.796718
     67 O11         0.9650    2.8520   -3.0100 o         1 MOL     -0.745203
     68 H28        -1.5480    1.5300   -3.0780 hn        1 MOL      0.046436
     69 H29        -0.1420    0.4930   -5.3790 h1        1 MOL      0.109627
     70 H30         1.3610   -0.3160   -3.2570 hc        1 MOL      0.054200
     71 H31         0.2170    0.6730   -2.3720 hc        1 MOL      0.054200
     72 H32         2.7920    1.0570   -4.6820 hn        1 MOL      0.388844
     73 H33         2.6210    2.8640   -4.6220 hn        1 MOL      0.388844
     74 N8         -2.4140   -1.2160   -3.9510 n         1 MOL     -0.326567
     75 C23        -3.1060   -2.4520   -3.4470 c3        1 MOL     -0.236303
     76 C24        -3.0790   -2.9690   -1.9670 c         1 MOL      0.460339
     77 O12        -3.5430   -4.0740   -1.6700 o         1 MOL     -0.470914
     78 H34        -3.0260   -0.4190   -3.9530 hn        1 MOL      0.271167
     79 H35        -2.7800   -3.3250   -4.0170 h1        1 MOL      0.159742
     80 H36        -4.1760   -2.2860   -3.6290 h1        1 MOL      0.159742
     81 N9         -2.5450   -2.1890   -1.0820 n         1 MOL     -0.249819
     82 C25        -1.8690   -2.6400    0.1200 c3        1 MOL     -0.042337
     83 C26        -0.6020   -1.9040    0.2430 c         1 MOL      0.315277
     84 O13        -0.7060   -0.6820    0.0280 o         1 MOL     -0.462714
     85 C27        -2.8370   -2.2760    1.2990 c3        1 MOL     -0.117155
     86 C28        -2.1700   -2.1930    2.6260 ca        1 MOL      0.222308
     87 C29        -2.0950   -3.3790    3.4460 ca        1 MOL     -0.359760
     88 C30        -1.6490   -0.9710    3.1030 ca        1 MOL     -0.359760
     89 C31        -1.5290   -3.3260    4.7500 ca        1 MOL     -0.069116
     90 C32        -1.2050   -0.9710    4.4660 ca        1 MOL     -0.069116
     91 C33        -1.0700   -2.0710    5.2700 ca        1 MOL      0.163012
     92 O14        -0.7150   -1.9520    6.5200 oh        1 MOL     -0.444169
     93 H37        -2.3150   -1.2300   -1.3220 hn        1 MOL      0.258247
     94 H38        -1.6400   -3.6980    0.0850 h1        1 MOL      0.086278
     95 H39        -3.6250   -3.0090    1.4430 hc        1 MOL      0.104968
     96 H40        -3.3610   -1.3480    1.1200 hc        1 MOL      0.104968
     97 H41        -2.6610   -4.2350    3.1350 ha        1 MOL      0.187159
     98 H42        -1.6340   -0.1170    2.4460 ha        1 MOL      0.187159
     99 H43        -1.5060   -4.1370    5.4500 ha        1 MOL      0.100016
    100 H44        -0.9240    0.0200    4.7910 ha        1 MOL      0.100016
    101 H45        -0.9310   -1.0930    6.9010 ho        1 MOL      0.361926
    102 N10         0.5240   -2.5200    0.5960 n         1 MOL     -0.221934
    103 C34         1.8180   -1.8030    0.6950 c3        1 MOL     -0.017384
    104 C35         2.5190   -1.9610   -0.6630 c         1 MOL      0.486592
    105 O15         3.2490   -1.0460   -1.1050 o         1 MOL     -0.573005
    106 C36         2.5760   -2.4740    1.8430 c3        1 MOL      0.007082
    107 C37         1.7070   -2.3380    3.1480 c3        1 MOL      0.130856
    108 C38         4.0160   -1.9810    1.9640 c3        1 MOL     -0.292500
    109 C39         2.0720   -3.3030    4.2240 c3        1 MOL     -0.134927
    110 H46         0.4920   -3.5270    0.5840 hn        1 MOL      0.264705
    111 H47         1.5930   -0.7700    0.9260 h1        1 MOL      0.026246
    112 H48         2.5300   -3.5510    1.6660 hc        1 MOL     -0.004466
    113 H49         0.6380   -2.5200    3.0760 hc        1 MOL     -0.016627
    114 H50         1.8610   -1.3720    3.6220 hc        1 MOL     -0.016627
    115 H51         4.4680   -2.0880    0.9850 hc        1 MOL      0.089810
    116 H52         4.1270   -0.9250    2.2140 hc        1 MOL      0.089810
    117 H53         4.5750   -2.5200    2.7270 hc        1 MOL      0.089810
    118 H54         1.3370   -3.3060    5.0390 hc        1 MOL      0.036297
    119 H55         2.1240   -4.2860    3.7390 hc        1 MOL      0.036297
    120 H56         3.0370   -3.1300    4.6990 hc        1 MOL      0.036297
    121 N11         2.2920   -3.0170   -1.4040 n         1 MOL     -0.300788
    122 C40         2.9560   -3.1930   -2.7040 c3        1 MOL     -0.112463
    123 C41         4.5180   -3.2720   -2.5660 c         1 MOL      0.422194
    124 O16         5.2260   -2.7380   -3.3770 o         1 MOL     -0.511669
    125 C42         2.4170   -4.4240   -3.4710 c3        1 MOL      0.277066
    126 O17         0.9790   -4.4560   -3.4310 oh        1 MOL     -0.613413
    127 H57         1.6120   -3.6950   -1.0790 hn        1 MOL      0.230190
    128 H58         2.7970   -2.3090   -3.3250 h1        1 MOL      0.096055
    129 H59         2.8250   -5.3560   -3.0760 h1        1 MOL      0.031577
    130 H60         2.7980   -4.3860   -4.4920 h1        1 MOL      0.031577
    131 H61         0.6070   -3.6050   -3.6660 ho        1 MOL      0.381698
    132 N12         5.0150   -3.8230   -1.4690 n         1 MOL     -0.329892
    133 C43         6.4350   -3.8390   -1.0100 c3        1 MOL      0.084096
    134 C44         7.1580   -2.5130   -0.7810 c         1 MOL      0.512220
    135 O18         8.1640   -2.4920   -0.0320 o         1 MOL     -0.553886
    136 C45         7.2670   -4.7650   -1.9580 c3        1 MOL     -0.490868
    137 H62         4.3850   -4.2450   -0.7960 hn        1 MOL      0.240921
    138 H63         6.3890   -4.2370   -0.0010 h1        1 MOL      0.087644
    139 H64         6.9480   -5.8090   -1.9210 hc        1 MOL      0.151183
    140 H65         7.2460   -4.4420   -2.9980 hc        1 MOL      0.151183
    141 H66         8.3250   -4.6770   -1.7200 hc        1 MOL      0.151183
    142 N13         6.6710   -1.4080   -1.2320 n         1 MOL     -0.406266
    143 C46         7.1440   -0.0790   -1.0330 c3        1 MOL      0.159660
    144 C47         7.4670    0.2290    0.4410 c         1 MOL      0.662480
    145 O19         6.6470    0.0960    1.3160 o         1 MOL     -0.491567
    146 C48         6.2130    0.8900   -1.6890 c3        1 MOL     -0.277920
    147 H67         5.7960   -1.4210   -1.7180 hn        1 MOL      0.339067
    148 H68         8.1120    0.0140   -1.5360 h1        1 MOL      0.039699
    149 H69         6.6650    1.8800   -1.7540 hc        1 MOL      0.070117
    150 H70         6.0260    0.5100   -2.6930 hc        1 MOL      0.070117
    151 H71         5.2450    0.9050   -1.1720 hc        1 MOL      0.070117
    152 N14         8.6540    0.8930    0.6860 n         1 MOL     -0.738002
    153 C49         9.0610    1.3900    2.0160 c3        1 MOL      0.091885
    154 C50         8.9900    0.3790    3.1310 c         1 MOL      0.371216
    155 O20         8.8220    0.7800    4.2980 o         1 MOL     -0.497109
    156 C51         8.1640    2.6720    2.3800 c3        1 MOL      0.003346
    157 C52         8.2700    3.8010    1.3460 c3        1 MOL     -0.114439
    158 C53         9.6480    4.2760    1.1720 c         1 MOL      0.617872
    159 O21        10.2370    4.0150    0.1290 o         1 MOL     -0.652310
    160 O22        10.1770    4.9360    2.1480 o         1 MOL     -0.652310
    161 H72         9.3470    1.1190   -0.0140 hn        1 MOL      0.355400
    162 H73        10.1080    1.6880    1.9360 h1        1 MOL      0.138645
    163 H74         8.5320    3.0420    3.3390 hc        1 MOL      0.019641
    164 H75         7.1240    2.3450    2.4580 hc        1 MOL      0.019641
    165 H76         7.5880    4.6160    1.5930 hc        1 MOL      0.008854
    166 H77         7.9800    3.4030    0.3780 hc        1 MOL      0.008854
    167 N15         9.1360   -0.9290    2.8620 n         1 MOL     -0.256867
    168 C54         9.0360   -1.9400    3.9790 c3        1 MOL     -0.221213
    169 H78         8.0370   -1.9050    4.4120 h1        1 MOL      0.105529
    170 H79         9.2260   -2.9380    3.5840 h1        1 MOL      0.105529
    171 H80         9.7730   -1.7070    4.7470 h1        1 MOL      0.105529
    172 H81         9.1920   -1.2170    1.8890 hn        1 MOL      0.243521
    173 Ca1         0.5590    3.9310   -0.5680 Ca        1 MOL      1.746350
    174 O23         0.4780    1.7740    1.1530 oh        1 MOL     -0.823990
    175 O24         2.7360    4.9380   -1.6390 oh        1 MOL     -0.823990
    176 H82         0.0990    0.9620    0.7960 ho        1 MOL      0.412226
    177 H83         2.5330    5.4960   -2.3890 ho        1 MOL      0.412226
    178 H84         1.1540    1.4680    1.7570 ho        1 MOL      0.412226
    179 H85         3.6840    5.0330   -1.5140 ho        1 MOL      0.412226
    180 O25        -0.3100    5.9680    1.1200 oh        1 MOL     -0.823990
    181 H86        -1.0980    5.8790    1.6530 ho        1 MOL      0.412226
    182 H87        -0.2780    6.8980    0.8850 ho        1 MOL      0.412226
    183 O26         2.5620    2.0430   -0.7130 oh        1 MOL     -0.823990
    184 H88         3.3860    2.1400   -0.2330 ho        1 MOL      0.412226
    185 H89         2.6860    1.2500   -1.2340 ho        1 MOL      0.412226
    186 O27        -0.8950    5.5130   -2.0590 oh        1 MOL     -0.823990
    187 H90        -0.3080    5.8330   -2.7500 ho        1 MOL      0.412226
    188 H91        -1.6590    6.0980   -2.1130 ho        1 MOL      0.412226
    189 O28         2.2380    4.4150    1.4620 oh        1 MOL     -0.823990
    190 H92         3.1720    4.4580    1.6640 ho        1 MOL      0.412226
    191 H93         1.8040    4.6780    2.2670 ho        1 MOL      0.412226
@<TRIPOS>BOND
     1    1    2 1   
     2    1    4 1   
     3    1    5 1   
     4    1    6 1   
     5    2    3 2   
     6    2    7 1   
     7    7    8 1   
     8    7   15 1   
     9    8    9 1   
    10    8   11 1   
    11    8   16 1   
    12    9   10 2   
    13    9   19 1   
    14   11   12 1   
    15   11   17 1   
    16   11   18 1   
    17   12   13 1   
    18   12   14 1   
    19   19   20 1   
    20   19   28 1   
    21   20   21 1   
    22   20   23 1   
    23   20   29 1   
    24   21   22 2   
    25   21   41 1   
    26   23   24 1   
    27   23   30 1   
    28   23   31 1   
    29   24   25 1   
    30   24   32 1   
    31   24   33 1   
    32   25   26 1   
    33   25   34 1   
    34   25   35 1   
    35   26   27 1   
    36   26   36 1   
    37   26   37 1   
    38   27   38 1   
    39   27   39 1   
    40   27   40 1   
    41   41   42 1   
    42   41   49 1   
    43   42   43 1   
    44   42   45 1   
    45   42   50 1   
    46   43   44 2   
    47   43   53 1   
    48   45   46 1   
    49   45   51 1   
    50   45   52 1   
    51   46   47 1   
    52   46   48 1   
    53   53   54 1   
    54   53   57 1   
    55   54   55 1   
    56   54   58 1   
    57   54   59 1   
    58   55   56 2   
    59   55   60 1   
    60   60   61 1   
    61   60   68 1   
    62   61   62 1   
    63   61   64 1   
    64   61   69 1   
    65   62   63 2   
    66   62   74 1   
    67   64   65 1   
    68   64   70 1   
    69   64   71 1   
    70   65   66 1   
    71   65   67 2   
    72   66   72 1   
    73   66   73 1   
    74   74   75 1   
    75   74   78 1   
    76   75   76 1   
    77   75   79 1   
    78   75   80 1   
    79   76   77 2   
    80   76   81 1   
    81   81   82 1   
    82   81   93 1   
    83   82   83 1   
    84   82   85 1   
    85   82   94 1   
    86   83   84 2   
    87   83  102 1   
    88   85   86 1   
    89   85   95 1   
    90   85   96 1   
    91   86   87 ar  
    92   86   88 ar  
    93   87   89 ar  
    94   87   97 1   
    95   88   90 ar  
    96   88   98 1   
    97   89   91 ar  
    98   89   99 1   
    99   90   91 ar  
   100   90  100 1   
   101   91   92 1   
   102   92  101 1   
   103  102  103 1   
   104  102  110 1   
   105  103  104 1   
   106  103  106 1   
   107  103  111 1   
   108  104  105 2   
   109  104  121 1   
   110  106  107 1   
   111  106  108 1   
   112  106  112 1   
   113  107  109 1   
   114  107  113 1   
   115  107  114 1   
   116  108  115 1   
   117  108  116 1   
   118  108  117 1   
   119  109  118 1   
   120  109  119 1   
   121  109  120 1   
   122  121  122 1   
   123  121  127 1   
   124  122  123 1   
   125  122  125 1   
   126  122  128 1   
   127  123  124 2   
   128  123  132 1   
   129  125  126 1   
   130  125  129 1   
   131  125  130 1   
   132  126  131 1   
   133  132  133 1   
   134  132  137 1   
   135  133  134 1   
   136  133  136 1   
   137  133  138 1   
   138  134  135 2   
   139  134  142 1   
   140  136  139 1   
   141  136  140 1   
   142  136  141 1   
   143  142  143 1   
   144  142  147 1   
   145  143  144 1   
   146  143  146 1   
   147  143  148 1   
   148  144  145 2   
   149  144  152 1   
   150  146  149 1   
   151  146  150 1   
   152  146  151 1   
   153  152  153 1   
   154  152  161 1   
   155  153  154 1   
   156  153  156 1   
   157  153  162 1   
   158  154  155 2   
   159  154  167 1   
   160  156  157 1   
   161  156  163 1   
   162  156  164 1   
   163  157  158 1   
   164  157  165 1   
   165  157  166 1   
   166  158  159 1   
   167  158  160 1   
   168  167  168 1   
   169  167  172 1   
   170  168  169 1   
   171  168  170 1   
   172  168  171 1   
   173  174  176 1   
   174  174  178 1   
   175  175  177 1   
   176  175  179 1   
   177  180  181 1   
   178  180  182 1   
   179  183  184 1   
   180  183  185 1   
   181  186  187 1   
   182  186  188 1   
   183  189  190 1   
   184  189  191 1   
@<TRIPOS>SUBSTRUCTURE
     1 MOL         1 TEMP              0 ****  ****    0 ROOT
