@<TRIPOS>MOLECULE
MOL
  195   189     1     0     0
SMALL
resp


@<TRIPOS>ATOM
      1 C1         -7.0410   -2.6910    5.0330 c3        1 MOL     -0.367438
      2 C2         -6.1910   -2.1040    3.8550 c         1 MOL      0.726791
      3 O1         -5.6830   -2.8790    3.0160 o         1 MOL     -0.591541
      4 H1         -7.5920   -1.8860    5.5200 hc        1 MOL      0.099606
      5 H2         -7.7440   -3.4280    4.6440 hc        1 MOL      0.099606
      6 H3         -6.3790   -3.1670    5.7570 hc        1 MOL      0.099606
      7 N1         -6.0520   -0.7970    3.6940 n         1 MOL     -0.643966
      8 C3         -5.5220   -0.1240    2.5160 c3        1 MOL      0.541502
      9 C4         -4.0520   -0.2520    2.2120 c         1 MOL     -0.034109
     10 O2         -3.5280    0.2530    1.2230 o         1 MOL     -0.006307
     11 C5         -5.8730    1.3720    2.5230 c3        1 MOL     -0.328289
     12 C6         -7.3360    1.7520    2.3100 c         1 MOL      0.692445
     13 O3         -8.0930    2.0440    3.2810 o         1 MOL     -0.697421
     14 O4         -7.7280    1.7610    1.1200 o         1 MOL     -0.697421
     15 H4         -6.5870   -0.1910    4.2960 hn        1 MOL      0.298472
     16 H5         -6.0140   -0.4910    1.6190 h1        1 MOL      0.024389
     17 H6         -5.2850    1.8700    1.7480 hc        1 MOL      0.037995
     18 H7         -5.5410    1.7690    3.4840 hc        1 MOL      0.037995
     19 N2         -3.2480   -1.0550    2.9640 n         1 MOL     -0.224986
     20 C7         -1.7760   -0.8670    2.9720 c3        1 MOL      0.122481
     21 C8         -1.1090   -2.2250    2.6780 c         1 MOL      0.420650
     22 O5         -1.5910   -3.2960    3.1110 o         1 MOL     -0.509232
     23 C9         -1.3760   -0.4160    4.3540 c3        1 MOL     -0.291112
     24 C10        -2.1860    0.7930    4.9400 c3        1 MOL      0.279315
     25 C11        -1.5110    1.5310    6.0900 c3        1 MOL     -0.194311
     26 C12        -0.3370    2.2480    5.4890 c3        1 MOL      0.270555
     27 N3          0.5940    2.7720    6.4740 n4        1 MOL     -0.523324
     28 H8         -3.5450   -1.7890    3.5860 hn        1 MOL      0.234649
     29 H9         -1.4760   -0.0770    2.2800 h1        1 MOL      0.077466
     30 H10        -0.3210   -0.1660    4.4640 hc        1 MOL      0.074761
     31 H11        -1.4470   -1.2200    5.0830 hc        1 MOL      0.074761
     32 H12        -3.1630    0.4500    5.2740 hc        1 MOL     -0.050078
     33 H13        -2.4260    1.4770    4.1220 hc        1 MOL     -0.050078
     34 H14        -1.1780    0.7560    6.7870 hc        1 MOL      0.040092
     35 H15        -2.2330    2.2500    6.4760 hc        1 MOL      0.040092
     36 H16        -0.7700    3.0290    4.8560 hx        1 MOL      0.039746
     37 H17         0.1630    1.5600    4.8060 hx        1 MOL      0.039746
     38 H18         0.1000    3.3050    7.1720 hn        1 MOL      0.359086
     39 H19         1.0220    1.9310    6.8430 hn        1 MOL      0.359086
     40 H20         1.4470    3.2090    6.1430 hn        1 MOL      0.359086
     41 N4         -0.1020   -2.3000    1.7520 n         1 MOL     -0.134614
     42 C13         0.7070   -1.2080    1.1100 c3        1 MOL     -0.440140
     43 C14         1.3360   -0.1710    2.0380 c         1 MOL      0.697475
     44 O6          0.6520    0.7610    2.4480 o         1 MOL     -0.641617
     45 C15         0.1540   -0.6060   -0.1990 c3        1 MOL     -0.218713
     46 C16        -0.0550   -1.5630   -1.4080 c         1 MOL      0.306428
     47 O7          0.5140   -2.7000   -1.2940 o         1 MOL     -0.586894
     48 O8         -0.4880   -1.1040   -2.5020 o         1 MOL     -0.586894
     49 H21         0.1820   -3.2330    1.5020 hn        1 MOL      0.166173
     50 H22         1.5750   -1.7900    0.7880 h1        1 MOL      0.033276
     51 H23         0.9390    0.1020   -0.4460 hc        1 MOL      0.217725
     52 H24        -0.7110    0.0430   -0.0920 hc        1 MOL      0.217725
     53 N5          2.6130   -0.2200    2.4260 n         1 MOL     -0.334428
     54 C17         3.5420   -1.3300    2.2600 c3        1 MOL     -0.370293
     55 C18         4.8710   -1.1910    3.0370 c         1 MOL      0.780200
     56 O9          5.0130   -0.3310    3.8690 o         1 MOL     -0.591824
     57 H25         2.9660    0.4900    3.0460 hn        1 MOL      0.277832
     58 H26         3.9510   -1.2810    1.2460 h1        1 MOL      0.188992
     59 H27         3.0460   -2.2700    2.4790 h1        1 MOL      0.188992
     60 N6          5.8640   -1.9990    2.8420 n         1 MOL     -0.660950
     61 C19         5.9210   -3.2150    1.9680 c3        1 MOL      0.254867
     62 C20         6.7340   -2.9320    0.6680 c         1 MOL      0.326494
     63 O10         7.7400   -2.2990    0.7610 o         1 MOL     -0.417351
     64 C21         6.3120   -4.4860    2.7250 c3        1 MOL     -0.115756
     65 C22         7.5160   -4.3980    3.7200 c         1 MOL      0.709647
     66 O11         8.6360   -4.6480    3.2890 o         1 MOL     -0.659915
     67 O12         7.3590   -4.0800    4.9230 o         1 MOL     -0.659915
     68 H28         6.7610   -1.7620    3.2330 hn        1 MOL      0.384462
     69 H29         4.9250   -3.5490    1.6870 h1        1 MOL     -0.031879
     70 H30         6.4200   -5.3510    2.0740 hc        1 MOL     -0.013127
     71 H31         5.4620   -4.5600    3.4060 hc        1 MOL     -0.013127
     72 N7          6.2950   -3.3800   -0.5090 n         1 MOL     -0.123897
     73 C23         6.8680   -3.1000   -1.8540 c3        1 MOL     -0.367384
     74 C24         6.5590   -1.6320   -2.3420 c         1 MOL      0.571374
     75 O13         7.3280   -0.9750   -3.0480 o         1 MOL     -0.551316
     76 H32         5.4780   -3.9660   -0.4460 hn        1 MOL      0.125973
     77 H33         6.4480   -3.7840   -2.5810 h1        1 MOL      0.161047
     78 H34         7.9520   -3.2130   -1.8380 h1        1 MOL      0.161047
     79 N8          5.4890   -1.0310   -1.8050 n         1 MOL     -0.226768
     80 C25         4.9330    0.2660   -2.2060 c3        1 MOL     -0.050852
     81 C26         5.2560    1.4070   -1.2110 c         1 MOL      0.528920
     82 O14         5.0800    1.1930    0.0380 o         1 MOL     -0.533013
     83 C27         3.3870    0.1550   -2.4060 c3        1 MOL      0.208103
     84 C28         3.0420   -0.7270   -3.6430 c3        1 MOL     -0.559800
     85 O15         2.8500    1.4010   -2.8120 oh        1 MOL     -0.569766
     86 H35         4.9210   -1.6600   -1.2540 hn        1 MOL      0.085461
     87 H36         5.2990    0.6180   -3.1650 h1        1 MOL      0.106933
     88 H37         2.9830   -0.2600   -1.4810 h1        1 MOL      0.153799
     89 H38         1.9170    1.4690   -2.6460 ho        1 MOL      0.416610
     90 H39         3.7070   -0.4340   -4.4470 hc        1 MOL      0.159063
     91 H40         3.1890   -1.7820   -3.4380 hc        1 MOL      0.159063
     92 H41         1.9880   -0.5760   -3.8620 hc        1 MOL      0.159063
     93 N9          5.5110    2.6360   -1.7570 n         1 MOL     -0.472230
     94 C29         5.7710    3.8560   -1.0420 c3        1 MOL      0.089207
     95 C30         4.5740    4.7300   -0.6300 c         1 MOL      0.337307
     96 O16         4.6260    5.8040   -0.0570 o         1 MOL     -0.470296
     97 C31         6.7650    4.6940   -1.8580 c3        1 MOL      0.075617
     98 C32         7.7080    5.6340   -1.1140 c3        1 MOL      0.164985
     99 C33         6.3420    5.3460   -3.2330 c3        1 MOL     -0.626301
    100 C34         8.6530    5.0690   -0.0880 c3        1 MOL     -0.248307
    101 H42         5.6650    2.6550   -2.7520 hn        1 MOL      0.295137
    102 H43         6.3100    3.6650   -0.1080 h1        1 MOL      0.116471
    103 H44         7.5500    3.9530   -2.0480 hc        1 MOL      0.024105
    104 H45         7.1280    6.3490   -0.5430 hc        1 MOL     -0.009782
    105 H46         8.3960    6.1270   -1.8130 hc        1 MOL     -0.009782
    106 H47         5.8180    4.4990   -3.6710 hc        1 MOL      0.171860
    107 H48         5.6960    6.2010   -3.0410 hc        1 MOL      0.171860
    108 H49         7.2640    5.5970   -3.7560 hc        1 MOL      0.171860
    109 H50         8.0740    4.8320    0.8060 hc        1 MOL      0.052811
    110 H51         9.0490    4.1150   -0.4140 hc        1 MOL      0.052811
    111 H52         9.3690    5.8760    0.0820 hc        1 MOL      0.052811
    112 N10         3.4070    4.2090   -1.0680 n         1 MOL     -0.182587
    113 C35         2.1060    4.8390   -0.6440 c3        1 MOL     -0.074630
    114 C36         0.9870    3.7980   -0.5280 c         1 MOL      0.509329
    115 O17         1.1580    2.7450   -1.1520 o         1 MOL     -0.494544
    116 C37         1.5560    5.9230   -1.6690 c3        1 MOL      0.376319
    117 C38         2.6140    6.7070   -2.3900 c3        1 MOL     -0.392776
    118 O18         0.7930    6.8440   -1.0060 oh        1 MOL     -0.642551
    119 H53         3.3700    3.3720   -1.6360 hn        1 MOL      0.147848
    120 H54         2.2350    5.3140    0.3310 h1        1 MOL      0.097066
    121 H55         0.8940    5.4780   -2.4110 h1        1 MOL      0.033825
    122 H56         0.5320    7.4480   -1.7030 ho        1 MOL      0.400187
    123 H57         3.2270    6.1030   -3.0560 hc        1 MOL      0.092613
    124 H58         1.9740    7.2390   -3.0970 hc        1 MOL      0.092613
    125 H59         3.1740    7.3830   -1.7340 hc        1 MOL      0.092613
    126 N11        -0.0970    4.0890    0.1880 n         1 MOL     -0.542705
    127 C39        -1.3360    3.2410    0.3460 c3        1 MOL      0.029311
    128 C40        -2.1000    3.0930   -0.9290 c         1 MOL      0.475586
    129 O19        -2.0170    3.9710   -1.7560 o         1 MOL     -0.551413
    130 C41        -2.2700    3.9100    1.3820 c3        1 MOL      0.407282
    131 C42        -2.8360    5.3120    1.2430 c3        1 MOL     -0.332790
    132 O20        -1.6930    3.8930    2.7050 oh        1 MOL     -0.674430
    133 H60         0.0170    4.9010    0.7750 hn        1 MOL      0.373898
    134 H61        -1.1680    2.2100    0.6760 h1        1 MOL      0.209828
    135 H62        -3.1970    3.3580    1.5150 h1        1 MOL      0.031898
    136 H63        -2.4900    3.9370    3.2370 ho        1 MOL      0.383667
    137 H64        -2.8630    5.8090    2.2070 hc        1 MOL      0.082215
    138 H65        -2.0390    5.8830    0.7710 hc        1 MOL      0.082215
    139 H66        -3.8490    5.3080    0.8420 hc        1 MOL      0.082215
    140 N12        -2.9100    2.0180   -0.9920 n         1 MOL      0.128430
    141 C43        -3.9250    1.8690   -2.0610 c3        1 MOL     -0.175470
    142 C44        -3.9600    0.3620   -2.4090 c         1 MOL      0.538547
    143 O21        -4.1000    0.0460   -3.5660 o         1 MOL     -0.636431
    144 C45        -5.2670    2.3550   -1.4960 c3        1 MOL      0.125532
    145 C46        -6.3130    2.3890   -2.5780 c3        1 MOL     -0.039671
    146 C47        -7.5880    3.2240   -2.4580 c3        1 MOL      0.103320
    147 C48        -8.5540    2.8110   -3.5410 c3        1 MOL      0.007679
    148 N13        -9.7110    3.7660   -3.5450 n4        1 MOL     -0.295481
    149 H67        -2.7820    1.3540   -0.2380 hn        1 MOL     -0.665301
    150 H68        -3.6550    2.4640   -2.9440 h1        1 MOL      0.117837
    151 H69        -5.1560    3.3730   -1.1200 hc        1 MOL      0.005980
    152 H70        -5.5690    1.6890   -0.6870 hc        1 MOL      0.005980
    153 H71        -6.5830    1.3680   -2.8750 hc        1 MOL     -0.023026
    154 H72        -5.8020    2.8350   -3.4290 hc        1 MOL     -0.023026
    155 H73        -7.3340    4.2690   -2.5850 hc        1 MOL     -0.001477
    156 H74        -8.0280    3.1340   -1.4600 hc        1 MOL     -0.001477
    157 H75        -8.9980    1.8430   -3.3370 hx        1 MOL      0.101622
    158 H76        -8.1450    2.7100   -4.5460 hx        1 MOL      0.101622
    159 H77       -10.0340    3.9790   -2.6150 hn        1 MOL      0.298244
    160 H78        -9.3540    4.6480   -3.8720 hn        1 MOL      0.298244
    161 H79       -10.5400    3.5700   -4.0800 hn        1 MOL      0.298244
    162 N14        -3.9710   -0.5650   -1.5100 n         1 MOL      0.469028
    163 C49        -4.4040   -1.9130   -1.7930 c3        1 MOL     -0.617987
    164 C50        -5.9730   -2.1170   -2.0060 c         1 MOL      0.541321
    165 O22        -6.7640   -1.4940   -1.2890 o         1 MOL     -0.511526
    166 C51        -3.6930   -2.6640   -0.6350 c3        1 MOL      0.598036
    167 C52        -3.6240   -4.2390   -0.8310 c3        1 MOL     -0.084726
    168 C53        -3.1920   -4.6560   -2.2550 c         1 MOL      0.400567
    169 O23        -4.0600   -5.1290   -3.0530 o         1 MOL     -0.618712
    170 O24        -2.0430   -4.2520   -2.6900 o         1 MOL     -0.618712
    171 H80        -4.0700   -0.2710   -0.5410 hn        1 MOL     -0.021551
    172 H81        -3.9250   -2.1040   -2.7540 h1        1 MOL      0.206397
    173 H82        -4.0800   -2.3950    0.3380 hc        1 MOL     -0.148235
    174 H83        -2.6450   -2.3620   -0.6090 hc        1 MOL     -0.148235
    175 H84        -4.5660   -4.6960   -0.5020 hc        1 MOL      0.004787
    176 H85        -2.8950   -4.6750   -0.1450 hc        1 MOL      0.004787
    177 N15        -6.3060   -3.0490   -2.8660 n         1 MOL     -0.366829
    178 C54        -7.7010   -3.5380   -3.0820 c3        1 MOL     -0.078059
    179 H86        -8.4020   -2.7250   -2.8940 h1        1 MOL      0.070386
    180 H87        -7.8110   -3.8820   -4.1100 h1        1 MOL      0.070386
    181 H88        -7.9080   -4.3610   -2.3980 h1        1 MOL      0.070386
    182 H89        -5.5410   -3.4760   -3.3670 hn        1 MOL      0.317632
    183 Ca1         0.4490   -4.9900   -2.0930 Ca        1 MOL      1.659878
    184 O25         0.7150   -3.7920   -4.4570 oh        1 MOL     -0.817690
    185 H90         0.1400   -3.0220   -4.5480 ho        1 MOL      0.402837
    186 H91         1.5100   -3.5480   -4.9210 ho        1 MOL      0.402837
    187 O26         3.0980   -4.7100   -3.1940 oh        1 MOL     -0.817690
    188 H92         3.6740   -5.4330   -2.9260 ho        1 MOL      0.402837
    189 H93         3.6410   -4.1730   -3.7710 ho        1 MOL      0.402837
    190 O27         1.1360   -7.1270   -3.5760 oh        1 MOL     -0.817690
    191 H94         1.1780   -7.9560   -3.1070 ho        1 MOL      0.402837
    192 H95         1.0260   -7.3810   -4.4930 ho        1 MOL      0.402837
    193 O28        -1.2290   -7.0760   -1.5610 oh        1 MOL     -0.817690
    194 H96        -0.7120   -7.8870   -1.4740 ho        1 MOL      0.402837
    195 H97        -1.9750   -7.3350   -2.0940 ho        1 MOL      0.402837
@<TRIPOS>BOND
     1    1    2 1   
     2    1    4 1   
     3    1    5 1   
     4    1    6 1   
     5    2    3 2   
     6    2    7 1   
     7    7    8 1   
     8    7   15 1   
     9    8    9 1   
    10    8   11 1   
    11    8   16 1   
    12    9   10 2   
    13    9   19 1   
    14   11   12 1   
    15   11   17 1   
    16   11   18 1   
    17   12   13 1   
    18   12   14 1   
    19   19   20 1   
    20   19   28 1   
    21   20   21 1   
    22   20   23 1   
    23   20   29 1   
    24   21   22 2   
    25   21   41 1   
    26   23   24 1   
    27   23   30 1   
    28   23   31 1   
    29   24   25 1   
    30   24   32 1   
    31   24   33 1   
    32   25   26 1   
    33   25   34 1   
    34   25   35 1   
    35   26   27 1   
    36   26   36 1   
    37   26   37 1   
    38   27   38 1   
    39   27   39 1   
    40   27   40 1   
    41   41   42 1   
    42   41   49 1   
    43   42   43 1   
    44   42   45 1   
    45   42   50 1   
    46   43   44 2   
    47   43   53 1   
    48   45   46 1   
    49   45   51 1   
    50   45   52 1   
    51   46   47 1   
    52   46   48 1   
    53   53   54 1   
    54   53   57 1   
    55   54   55 1   
    56   54   58 1   
    57   54   59 1   
    58   55   56 2   
    59   55   60 1   
    60   60   61 1   
    61   60   68 1   
    62   61   62 1   
    63   61   64 1   
    64   61   69 1   
    65   62   63 2   
    66   62   72 1   
    67   64   65 1   
    68   64   70 1   
    69   64   71 1   
    70   65   66 1   
    71   65   67 1   
    72   72   73 1   
    73   72   76 1   
    74   73   74 1   
    75   73   77 1   
    76   73   78 1   
    77   74   75 2   
    78   74   79 1   
    79   79   80 1   
    80   79   86 1   
    81   80   81 1   
    82   80   83 1   
    83   80   87 1   
    84   81   82 2   
    85   81   93 1   
    86   83   84 1   
    87   83   85 1   
    88   83   88 1   
    89   84   90 1   
    90   84   91 1   
    91   84   92 1   
    92   85   89 1   
    93   93   94 1   
    94   93  101 1   
    95   94   95 1   
    96   94   97 1   
    97   94  102 1   
    98   95   96 2   
    99   95  112 1   
   100   97   98 1   
   101   97   99 1   
   102   97  103 1   
   103   98  100 1   
   104   98  104 1   
   105   98  105 1   
   106   99  106 1   
   107   99  107 1   
   108   99  108 1   
   109  100  109 1   
   110  100  110 1   
   111  100  111 1   
   112  112  113 1   
   113  112  119 1   
   114  113  114 1   
   115  113  116 1   
   116  113  120 1   
   117  114  115 2   
   118  114  126 1   
   119  116  117 1   
   120  116  118 1   
   121  116  121 1   
   122  117  123 1   
   123  117  124 1   
   124  117  125 1   
   125  118  122 1   
   126  126  127 1   
   127  126  133 1   
   128  127  128 1   
   129  127  130 1   
   130  127  134 1   
   131  128  129 2   
   132  128  140 1   
   133  130  131 1   
   134  130  132 1   
   135  130  135 1   
   136  131  137 1   
   137  131  138 1   
   138  131  139 1   
   139  132  136 1   
   140  140  141 1   
   141  140  149 1   
   142  141  142 1   
   143  141  144 1   
   144  141  150 1   
   145  142  143 2   
   146  142  162 1   
   147  144  145 1   
   148  144  151 1   
   149  144  152 1   
   150  145  146 1   
   151  145  153 1   
   152  145  154 1   
   153  146  147 1   
   154  146  155 1   
   155  146  156 1   
   156  147  148 1   
   157  147  157 1   
   158  147  158 1   
   159  148  159 1   
   160  148  160 1   
   161  148  161 1   
   162  162  163 1   
   163  162  171 1   
   164  163  164 1   
   165  163  166 1   
   166  163  172 1   
   167  164  165 2   
   168  164  177 1   
   169  166  167 1   
   170  166  173 1   
   171  166  174 1   
   172  167  168 1   
   173  167  175 1   
   174  167  176 1   
   175  168  169 1   
   176  168  170 1   
   177  177  178 1   
   178  177  182 1   
   179  178  179 1   
   180  178  180 1   
   181  178  181 1   
   182  184  185 1   
   183  184  186 1   
   184  187  188 1   
   185  187  189 1   
   186  190  191 1   
   187  190  192 1   
   188  193  194 1   
   189  193  195 1   
@<TRIPOS>SUBSTRUCTURE
     1 MOL         1 TEMP              0 ****  ****    0 ROOT
