@<TRIPOS>MOLECULE
MOL
  178   175     1     0     0
SMALL
resp


@<TRIPOS>ATOM
      1 C1          1.0250    6.4520   -2.2490 c3        1 MOL     -0.338675
      2 C2          2.3050    6.7630   -1.5130 c         1 MOL      0.723806
      3 O1          2.2260    7.4640   -0.5080 o         1 MOL     -0.604711
      4 H1          1.0870    6.8420   -3.2650 hc        1 MOL      0.072787
      5 H2          0.8770    5.3720   -2.2840 hc        1 MOL      0.072787
      6 H3          0.1860    6.9170   -1.7330 hc        1 MOL      0.072787
      7 N1          3.3830    6.2410   -2.0130 n         1 MOL     -0.555636
      8 C3          4.7050    6.1390   -1.3840 c3        1 MOL      0.144084
      9 C4          4.8240    4.9400   -0.3660 c         1 MOL      0.562900
     10 O2          4.8140    3.7530   -0.8290 o         1 MOL     -0.569053
     11 C5          5.8320    6.0380   -2.5090 c3        1 MOL     -0.274044
     12 C6          7.2540    6.0860   -1.9510 c         1 MOL      0.770936
     13 O3          7.4160    6.5010   -0.7850 o         1 MOL     -0.747063
     14 O4          8.2220    5.8030   -2.6570 o         1 MOL     -0.747063
     15 H4          3.3000    5.8260   -2.9340 hn        1 MOL      0.289411
     16 H5          4.7000    7.0490   -0.7850 h1        1 MOL      0.033092
     17 H6          5.7740    6.9030   -3.1660 hc        1 MOL      0.047365
     18 H7          5.7010    5.1890   -3.1850 hc        1 MOL      0.047365
     19 N2          4.9440    5.2410    0.9220 n         1 MOL     -0.531560
     20 C7          5.0190    4.2170    2.0370 c3        1 MOL      0.329377
     21 C8          3.6050    3.6250    2.1840 c         1 MOL      0.420313
     22 O5          2.6320    4.3220    1.8830 o         1 MOL     -0.532856
     23 C9          5.4790    4.9540    3.3170 c3        1 MOL     -0.548294
     24 H8          5.0540    6.2160    1.1550 hn        1 MOL      0.318479
     25 H9          5.6900    3.4050    1.7880 h1        1 MOL      0.033017
     26 H10         5.4240    4.2720    4.1710 hc        1 MOL      0.150043
     27 H11         6.4030    5.4510    3.0320 hc        1 MOL      0.150043
     28 H12         4.8740    5.8240    3.5640 hc        1 MOL      0.150043
     29 N3          3.3300    2.4640    2.7350 n         1 MOL     -0.272361
     30 C10         4.2770    1.4220    3.1310 c3        1 MOL     -0.002104
     31 C11         4.3020    0.3490    1.9910 c         1 MOL      0.442008
     32 O6          3.3290    0.2170    1.2440 o         1 MOL     -0.428934
     33 C12         3.8390    0.8650    4.4980 c3        1 MOL     -0.121635
     34 C13         2.3410    0.8260    4.7500 c         1 MOL      0.605499
     35 O7          1.5620    0.4360    3.8380 o         1 MOL     -0.634440
     36 O8          1.8680    1.1520    5.8480 o         1 MOL     -0.634440
     37 H13         2.3550    2.2070    2.8200 hn        1 MOL      0.256390
     38 H14         5.2270    1.9500    3.2300 h1        1 MOL      0.062800
     39 H15         4.3070    1.3910    5.3240 hc        1 MOL      0.010693
     40 H16         4.4040   -0.0610    4.6390 hc        1 MOL      0.010693
     41 N4          5.4060   -0.4110    2.0280 n         1 MOL     -0.616245
     42 C14         5.5730   -1.5630    1.0700 c3        1 MOL      0.113019
     43 C15         6.2440   -1.1290   -0.2130 c         1 MOL      0.530304
     44 O9          6.2600    0.0080   -0.6110 o         1 MOL     -0.424195
     45 H17         6.2310   -0.2060    2.5900 hn        1 MOL      0.365475
     46 H18         4.6140   -2.0060    0.8020 h1        1 MOL      0.041787
     47 H19         6.1400   -2.3560    1.5540 h1        1 MOL      0.041787
     48 N5          6.6680   -2.1230   -1.0590 n         1 MOL     -0.554855
     49 C16         6.7870   -3.5720   -0.9750 c3        1 MOL      0.258147
     50 C17         5.7210   -4.4150   -1.6410 c         1 MOL      0.293801
     51 O10         5.6380   -5.5940   -1.3220 o         1 MOL     -0.505976
     52 C18         8.1150   -4.1110   -1.4550 c3        1 MOL     -0.342235
     53 C19         8.4740   -3.6800   -2.8610 c         1 MOL      0.712785
     54 N6          8.1100   -4.5000   -3.8240 n         1 MOL     -0.834197
     55 O11         9.1100   -2.6810   -3.1190 o         1 MOL     -0.536140
     56 H20         7.3320   -1.7420   -1.7180 hn        1 MOL      0.274133
     57 H21         6.7990   -3.8800    0.0650 h1        1 MOL      0.051312
     58 H22         8.0850   -5.1960   -1.3200 hc        1 MOL      0.100861
     59 H23         8.9230   -3.6760   -0.8670 hc        1 MOL      0.100861
     60 H24         7.6750   -5.3980   -3.6310 hn        1 MOL      0.376445
     61 H25         8.4000   -4.3890   -4.7840 hn        1 MOL      0.376445
     62 N7          4.9310   -3.8450   -2.5220 n         1 MOL     -0.281678
     63 C20         3.7550   -4.5050   -3.1840 c3        1 MOL     -0.092376
     64 C21         2.5460   -4.8310   -2.2840 c         1 MOL      0.546255
     65 O12         1.4740   -5.0690   -2.8290 o         1 MOL     -0.575568
     66 H26         5.1460   -2.8710   -2.6800 hn        1 MOL      0.273912
     67 H27         3.9640   -5.4300   -3.7180 h1        1 MOL      0.099456
     68 H28         3.4400   -3.9030   -4.0280 h1        1 MOL      0.099456
     69 N8          2.6300   -4.8760   -0.9650 n         1 MOL     -0.193667
     70 C22         1.6150   -5.1760   -0.0050 c3        1 MOL     -0.184093
     71 C23         0.6270   -4.0200    0.1590 c         1 MOL      0.443828
     72 O13         0.9420   -2.8870    0.5090 o         1 MOL     -0.420319
     73 C24         2.1720   -5.4900    1.3800 c3        1 MOL      0.369483
     74 C25         2.2050   -7.0230    1.4920 c3        1 MOL     -0.494858
     75 O14         3.4840   -5.0780    1.3890 oh        1 MOL     -0.516492
     76 H29         3.5490   -4.6610   -0.6050 hn        1 MOL      0.171945
     77 H30         1.0850   -6.0560   -0.3890 h1        1 MOL      0.127821
     78 H31         1.5890   -5.0150    2.1680 h1        1 MOL      0.063337
     79 H32         3.6300   -4.5700    2.1920 ho        1 MOL      0.328129
     80 H33         2.7870   -7.2430    2.3910 hc        1 MOL      0.125540
     81 H34         1.2310   -7.5050    1.5630 hc        1 MOL      0.125540
     82 H35         2.6940   -7.4560    0.6240 hc        1 MOL      0.125540
     83 N9         -0.6650   -4.3320   -0.1510 n         1 MOL     -0.362869
     84 C26        -1.8550   -3.5400   -0.2670 c3        1 MOL      0.056345
     85 C27        -2.7290   -3.5270    1.0330 c         1 MOL      0.398382
     86 O15        -3.0660   -4.5630    1.5630 o         1 MOL     -0.571749
     87 C28        -2.7660   -4.0740   -1.4730 c3        1 MOL      0.262506
     88 C29        -3.9660   -3.1420   -1.7780 c3        1 MOL      0.119935
     89 C30        -1.9260   -4.2290   -2.7450 c3        1 MOL     -0.435251
     90 C31        -5.0770   -3.9830   -2.4530 c3        1 MOL     -0.320454
     91 H36        -0.8240   -5.2980   -0.4010 hn        1 MOL      0.222447
     92 H37        -1.5430   -2.5080   -0.3700 h1        1 MOL      0.075351
     93 H38        -3.1710   -4.9970   -1.0670 hc        1 MOL     -0.016261
     94 H39        -3.6980   -2.2520   -2.3260 hc        1 MOL     -0.001431
     95 H40        -4.2770   -2.8700   -0.7700 hc        1 MOL     -0.001431
     96 H41        -1.1650   -3.4450   -2.8100 hc        1 MOL      0.102759
     97 H42        -1.4550   -5.2130   -2.6890 hc        1 MOL      0.102759
     98 H43        -2.5660   -4.3290   -3.6240 hc        1 MOL      0.102759
     99 H44        -4.6480   -4.3820   -3.3670 hc        1 MOL      0.064013
    100 H45        -5.4900   -4.6990   -1.7470 hc        1 MOL      0.064013
    101 H46        -5.9090   -3.3150   -2.6920 hc        1 MOL      0.064013
    102 N10        -3.2380   -2.3470    1.4560 n         1 MOL      0.110869
    103 C32        -4.0000   -2.0800    2.7410 c3        1 MOL      0.002740
    104 C33        -5.4420   -1.4840    2.5770 c         1 MOL      0.359113
    105 O16        -6.3500   -1.5880    3.4490 o         1 MOL     -0.524192
    106 C34        -3.1980   -1.3690    3.7970 c3        1 MOL      0.008684
    107 C35        -1.8280   -0.8790    3.3750 c         1 MOL      0.640730
    108 O17        -1.6240    0.2860    2.8530 o         1 MOL     -0.699946
    109 O18        -0.8970   -1.6840    3.4080 o         1 MOL     -0.699946
    110 H47        -3.0870   -1.5140    0.9150 hn        1 MOL     -0.373043
    111 H48        -4.1660   -3.0740    3.1510 h1        1 MOL      0.095917
    112 H49        -3.0960   -2.0670    4.6360 hc        1 MOL      0.003965
    113 H50        -3.7260   -0.4680    4.1250 hc        1 MOL      0.003965
    114 N11        -5.5720   -0.9300    1.3530 n         1 MOL     -0.391429
    115 C36        -6.7710   -0.1630    0.9750 c3        1 MOL      0.563381
    116 C37        -6.3490    1.1910    0.1960 c         1 MOL      0.137293
    117 O19        -6.7760    1.4910   -0.9210 o         1 MOL     -0.400372
    118 C38        -7.7510   -1.0270    0.2060 c3        1 MOL     -0.398702
    119 C39        -9.1370   -0.4530   -0.0110 ca        1 MOL      0.157545
    120 C40        -9.8560    0.4550    0.7850 ca        1 MOL     -0.201365
    121 C41        -9.6930   -0.8650   -1.2530 ca        1 MOL     -0.201365
    122 C42       -11.2010    0.8010    0.4130 ca        1 MOL     -0.073171
    123 C43       -11.0450   -0.4370   -1.5800 ca        1 MOL     -0.073171
    124 C44       -11.8250    0.2920   -0.7510 ca        1 MOL     -0.170689
    125 H51        -4.7780   -0.8020    0.7590 hn        1 MOL      0.203593
    126 H52        -7.2810    0.1920    1.8660 h1        1 MOL     -0.034303
    127 H53        -7.8470   -1.9420    0.7810 hc        1 MOL      0.125213
    128 H54        -7.2500   -1.3820   -0.6950 hc        1 MOL      0.125213
    129 H55        -9.3630    0.8050    1.6830 ha        1 MOL      0.130752
    130 H56        -9.1780   -1.4360   -2.0170 ha        1 MOL      0.130752
    131 H57       -11.8360    1.4360    1.0150 ha        1 MOL      0.084314
    132 H58       -11.5110   -0.7350   -2.5120 ha        1 MOL      0.084314
    133 H59       -12.8550    0.5150   -0.9860 ha        1 MOL      0.116719
    134 N12        -5.5560    2.0460    0.8340 n         1 MOL     -0.133811
    135 C45        -5.0880    3.3420    0.2750 c3        1 MOL      0.061269
    136 C46        -4.7310    3.4120   -1.2070 c         1 MOL      0.234004
    137 O20        -4.9160    4.4480   -1.8370 o         1 MOL     -0.518704
    138 C47        -3.8870    3.8060    1.1280 c3        1 MOL      0.143492
    139 C48        -4.2110    3.1680    2.4820 c3        1 MOL     -0.129923
    140 C49        -4.8480    1.8080    2.1210 c3        1 MOL     -0.089443
    141 H60        -5.8170    4.1330    0.4440 h1        1 MOL      0.054146
    142 H61        -2.9580    3.4800    0.6440 hc        1 MOL     -0.005315
    143 H62        -3.8800    4.8900    1.2460 hc        1 MOL     -0.005315
    144 H63        -3.3140    2.9700    3.0560 hc        1 MOL      0.048750
    145 H64        -4.9140    3.8560    2.9620 hc        1 MOL      0.048750
    146 H65        -4.0810    1.0440    2.0010 h1        1 MOL      0.102236
    147 H66        -5.5680    1.4200    2.8350 h1        1 MOL      0.102236
    148 N13        -4.1400    2.3810   -1.7220 n         1 MOL     -0.055022
    149 C50        -3.6480    2.2160   -3.1250 c3        1 MOL     -0.173277
    150 C51        -4.8680    2.3180   -4.0610 c         1 MOL      0.563194
    151 O21        -4.7050    2.8540   -5.1720 o         1 MOL     -0.571908
    152 C52        -2.9790    0.7870   -3.1630 c3        1 MOL     -0.073652
    153 C53        -1.8420    0.6550   -2.0870 c3        1 MOL      0.097913
    154 C54        -2.2090    0.0140   -0.7350 c         1 MOL      0.424872
    155 O22        -1.2440   -0.3720   -0.0590 o         1 MOL     -0.500834
    156 O23        -3.3860    0.1160   -0.2580 o         1 MOL     -0.500834
    157 H67        -3.8160    1.6840   -1.0700 hn        1 MOL      0.226286
    158 H68        -3.0170    3.0590   -3.3790 h1        1 MOL      0.112066
    159 H69        -2.6230    0.8310   -4.1900 hc        1 MOL      0.016195
    160 H70        -3.6500   -0.0560   -3.0850 hc        1 MOL      0.016195
    161 H71        -1.3050    1.6020   -2.0020 hc        1 MOL     -0.008559
    162 H72        -1.0440    0.0800   -2.5330 hc        1 MOL     -0.008559
    163 N14        -5.9800    1.7190   -3.6200 n         1 MOL     -0.209715
    164 C55        -7.2060    1.8990   -4.4190 c3        1 MOL     -0.206102
    165 H73        -6.9480    2.3200   -5.3910 h1        1 MOL      0.084346
    166 H74        -7.6930    0.9340   -4.5610 h1        1 MOL      0.084346
    167 H75        -7.8840    2.5760   -3.8990 h1        1 MOL      0.084346
    168 H76        -6.0950    1.2450   -2.7310 hn        1 MOL      0.187930
    169 Ca1         0.7330   -0.5420    1.6270 Ca        1 MOL      1.662567
    170 O24         1.6480   -0.2280   -0.9190 oh        1 MOL     -0.919477
    171 H77         2.4670    0.2590   -0.9310 ho        1 MOL      0.437782
    172 H78         1.0950    0.2070   -1.5640 ho        1 MOL      0.437782
    173 O25         2.3290   -2.3250    2.9170 oh        1 MOL     -0.919477
    174 H79         3.2780   -2.4480    2.9660 ho        1 MOL      0.437782
    175 H80         2.0340   -2.4520    3.8100 ho        1 MOL      0.437782
    176 O26         0.3840    2.1040    1.2270 oh        1 MOL     -0.919477
    177 H81        -0.5740    2.1320    1.2100 ho        1 MOL      0.437782
    178 H82         0.6490    3.0250    1.1150 ho        1 MOL      0.437782
@<TRIPOS>BOND
     1    1    2 1   
     2    1    4 1   
     3    1    5 1   
     4    1    6 1   
     5    2    3 2   
     6    2    7 1   
     7    7    8 1   
     8    7   15 1   
     9    8    9 1   
    10    8   11 1   
    11    8   16 1   
    12    9   10 2   
    13    9   19 1   
    14   11   12 1   
    15   11   17 1   
    16   11   18 1   
    17   12   13 1   
    18   12   14 1   
    19   19   20 1   
    20   19   24 1   
    21   20   21 1   
    22   20   23 1   
    23   20   25 1   
    24   21   22 2   
    25   21   29 1   
    26   23   26 1   
    27   23   27 1   
    28   23   28 1   
    29   29   30 1   
    30   29   37 1   
    31   30   31 1   
    32   30   33 1   
    33   30   38 1   
    34   31   32 2   
    35   31   41 1   
    36   33   34 1   
    37   33   39 1   
    38   33   40 1   
    39   34   35 1   
    40   34   36 1   
    41   41   42 1   
    42   41   45 1   
    43   42   43 1   
    44   42   46 1   
    45   42   47 1   
    46   43   44 2   
    47   43   48 1   
    48   48   49 1   
    49   48   56 1   
    50   49   50 1   
    51   49   52 1   
    52   49   57 1   
    53   50   51 2   
    54   50   62 1   
    55   52   53 1   
    56   52   58 1   
    57   52   59 1   
    58   53   54 1   
    59   53   55 2   
    60   54   60 1   
    61   54   61 1   
    62   62   63 1   
    63   62   66 1   
    64   63   64 1   
    65   63   67 1   
    66   63   68 1   
    67   64   65 2   
    68   64   69 1   
    69   69   70 1   
    70   69   76 1   
    71   70   71 1   
    72   70   73 1   
    73   70   77 1   
    74   71   72 2   
    75   71   83 1   
    76   73   74 1   
    77   73   75 1   
    78   73   78 1   
    79   74   80 1   
    80   74   81 1   
    81   74   82 1   
    82   75   79 1   
    83   83   84 1   
    84   83   91 1   
    85   84   85 1   
    86   84   87 1   
    87   84   92 1   
    88   85   86 2   
    89   85  102 1   
    90   87   88 1   
    91   87   89 1   
    92   87   93 1   
    93   88   90 1   
    94   88   94 1   
    95   88   95 1   
    96   89   96 1   
    97   89   97 1   
    98   89   98 1   
    99   90   99 1   
   100   90  100 1   
   101   90  101 1   
   102  102  103 1   
   103  102  110 1   
   104  103  104 1   
   105  103  106 1   
   106  103  111 1   
   107  104  105 2   
   108  104  114 1   
   109  106  107 1   
   110  106  112 1   
   111  106  113 1   
   112  107  108 1   
   113  107  109 1   
   114  114  115 1   
   115  114  125 1   
   116  115  116 1   
   117  115  118 1   
   118  115  126 1   
   119  116  117 2   
   120  116  134 1   
   121  118  119 1   
   122  118  127 1   
   123  118  128 1   
   124  119  120 ar  
   125  119  121 ar  
   126  120  122 ar  
   127  120  129 1   
   128  121  123 ar  
   129  121  130 1   
   130  122  124 ar  
   131  122  131 1   
   132  123  124 ar  
   133  123  132 1   
   134  124  133 1   
   135  134  135 1   
   136  134  140 1   
   137  135  136 1   
   138  135  138 1   
   139  135  141 1   
   140  136  137 2   
   141  136  148 1   
   142  138  139 1   
   143  138  142 1   
   144  138  143 1   
   145  139  140 1   
   146  139  144 1   
   147  139  145 1   
   148  140  146 1   
   149  140  147 1   
   150  148  149 1   
   151  148  157 1   
   152  149  150 1   
   153  149  152 1   
   154  149  158 1   
   155  150  151 2   
   156  150  163 1   
   157  152  153 1   
   158  152  159 1   
   159  152  160 1   
   160  153  154 1   
   161  153  161 1   
   162  153  162 1   
   163  154  155 1   
   164  154  156 1   
   165  163  164 1   
   166  163  168 1   
   167  164  165 1   
   168  164  166 1   
   169  164  167 1   
   170  170  171 1   
   171  170  172 1   
   172  173  174 1   
   173  173  175 1   
   174  176  177 1   
   175  176  178 1   
@<TRIPOS>SUBSTRUCTURE
     1 MOL         1 TEMP              0 ****  ****    0 ROOT
