@<TRIPOS>MOLECULE
MOL
  198   191     1     0     0
SMALL
resp


@<TRIPOS>ATOM
      1 C1         -7.4910   -4.5740    2.1550 c3        1 MOL     -0.294256
      2 C2         -6.5500   -3.5670    1.5900 c         1 MOL      0.761305
      3 O1         -5.7850   -3.8130    0.6090 o         1 MOL     -0.623871
      4 H1         -7.1400   -4.8870    3.1380 hc        1 MOL      0.076669
      5 H2         -8.4840   -4.1340    2.2470 hc        1 MOL      0.076669
      6 H3         -7.5360   -5.4400    1.4950 hc        1 MOL      0.076669
      7 N1         -6.5240   -2.3310    2.1100 n         1 MOL     -0.654207
      8 C3         -5.8050   -1.2090    1.5550 c3        1 MOL      0.550795
      9 C4         -4.3000   -1.2050    1.4710 c         1 MOL     -0.072295
     10 O2         -3.6760   -0.2820    0.9930 o         1 MOL     -0.030807
     11 C5         -6.2250    0.0040    2.3560 c3        1 MOL     -0.134983
     12 C6         -7.7710    0.1710    2.4030 c         1 MOL      0.677867
     13 O3         -8.3040    1.2400    1.9770 o         1 MOL     -0.681591
     14 O4         -8.4710   -0.7210    2.9580 o         1 MOL     -0.681591
     15 H4         -7.1610   -1.9900    2.8130 hn        1 MOL      0.258461
     16 H5         -6.1560   -1.0260    0.5480 h1        1 MOL      0.003077
     17 H6         -5.8100    0.8740    1.8650 hc        1 MOL     -0.032805
     18 H7         -5.8920   -0.0950    3.3870 hc        1 MOL     -0.032805
     19 N2         -3.6170   -2.2910    1.8780 n         1 MOL     -0.416876
     20 C7         -2.1700   -2.4150    2.1510 c3        1 MOL      0.291013
     21 C8         -1.3510   -3.2760    1.1960 c         1 MOL      0.389286
     22 O5         -1.8020   -4.3840    0.9220 o         1 MOL     -0.509219
     23 C9         -1.8990   -2.7800    3.5950 c3        1 MOL     -0.496409
     24 C10        -2.2440   -1.6820    4.6030 c3        1 MOL     -0.005224
     25 C11        -1.5670   -1.9040    5.9260 c3        1 MOL     -0.214437
     26 C12        -2.1200   -0.8830    6.9340 c3        1 MOL      0.260087
     27 N3         -1.5780   -1.0470    8.3310 n4        1 MOL     -0.469805
     28 H8         -4.1400   -3.1400    2.0300 hn        1 MOL      0.274301
     29 H9         -1.7770   -1.4060    2.0100 h1        1 MOL      0.129987
     30 H10        -0.8310   -2.9780    3.7330 hc        1 MOL      0.168435
     31 H11        -2.4470   -3.7070    3.7700 hc        1 MOL      0.168435
     32 H12        -3.3080   -1.5810    4.7970 hc        1 MOL      0.087187
     33 H13        -1.8250   -0.7360    4.2470 hc        1 MOL      0.087187
     34 H14        -0.4960   -1.7030    5.8190 hc        1 MOL      0.078586
     35 H15        -1.8010   -2.9160    6.2600 hc        1 MOL      0.078586
     36 H16        -3.2020   -0.8010    6.9660 hx        1 MOL      0.029377
     37 H17        -1.7790    0.0660    6.5480 hx        1 MOL      0.029377
     38 H18        -1.8560   -0.2660    8.9120 hn        1 MOL      0.345980
     39 H19        -1.8580   -1.9140    8.7700 hn        1 MOL      0.345980
     40 H20        -0.5700   -1.0040    8.3410 hn        1 MOL      0.345980
     41 N4         -0.1960   -2.8610    0.6380 n         1 MOL     -0.108322
     42 C13         0.5480   -1.6070    0.7630 c3        1 MOL     -0.584393
     43 C14         0.9270   -1.2720    2.1990 c         1 MOL      0.187428
     44 O6          0.3510   -0.4320    2.8450 o         1 MOL     -0.337149
     45 C15        -0.1060   -0.4350   -0.0140 c3        1 MOL     -1.035055
     46 C16        -0.2850   -0.5580   -1.5120 c         1 MOL      0.753107
     47 O7          0.0850   -1.6400   -2.0320 o         1 MOL     -0.690354
     48 O8         -0.6550    0.4020   -2.1920 o         1 MOL     -0.690354
     49 H21         0.1670   -3.5340   -0.0200 hn        1 MOL      0.189498
     50 H22         1.5190   -1.6460    0.2580 h1        1 MOL      0.286857
     51 H23         0.5030    0.4520    0.1400 hc        1 MOL      0.465809
     52 H24        -1.1350   -0.3150    0.3410 hc        1 MOL      0.465809
     53 N5          1.8420   -1.9490    2.8760 n         1 MOL     -0.178866
     54 C17         2.8690   -2.7720    2.1530 c3        1 MOL     -0.100526
     55 C18         4.0020   -3.3200    3.0770 c         1 MOL      0.422212
     56 O9          4.0800   -2.9710    4.2800 o         1 MOL     -0.542969
     57 H25         1.8540   -1.7580    3.8620 hn        1 MOL      0.241367
     58 H26         3.3760   -2.1420    1.4260 h1        1 MOL      0.138982
     59 H27         2.4840   -3.6680    1.6560 h1        1 MOL      0.138982
     60 N6          4.9320   -4.1180    2.5250 n         1 MOL     -0.205557
     61 C19         5.0010   -4.4650    1.1200 c3        1 MOL     -0.369822
     62 C20         5.8290   -3.4930    0.2020 c         1 MOL      0.634183
     63 O10         5.6400   -3.4150   -0.9820 o         1 MOL     -0.540701
     64 C21         5.5440   -5.9000    1.0380 c3        1 MOL     -0.009152
     65 C22         6.7500   -6.2800    1.9650 c         1 MOL      0.651265
     66 O11         7.4840   -7.1690    1.5760 o         1 MOL     -0.660408
     67 O12         6.8680   -5.8160    3.1240 o         1 MOL     -0.660408
     68 H28         5.5820   -4.6060    3.1170 hn        1 MOL      0.216646
     69 H29         4.0160   -4.3360    0.6770 h1        1 MOL      0.105703
     70 H30         5.8330   -6.1870    0.0350 hc        1 MOL      0.024237
     71 H31         4.7960   -6.6670    1.2150 hc        1 MOL      0.024237
     72 N7          6.6780   -2.6760    0.8400 n         1 MOL     -0.331735
     73 C23         7.6830   -1.8380    0.1700 c3        1 MOL     -0.268550
     74 C24         7.1340   -0.5660   -0.5720 c         1 MOL      0.469879
     75 O13         7.8080   -0.1200   -1.5120 o         1 MOL     -0.527222
     76 H32         6.7480   -2.7300    1.8480 hn        1 MOL      0.260529
     77 H33         8.2980   -2.4160   -0.5060 h1        1 MOL      0.163954
     78 H34         8.3680   -1.5440    0.9650 h1        1 MOL      0.163954
     79 N8          6.0910    0.0660   -0.0270 n         1 MOL     -0.246326
     80 C25         5.3500    1.2220   -0.5780 c3        1 MOL     -0.176797
     81 C26         5.7670    2.6420   -0.0650 c         1 MOL      0.661998
     82 O14         6.2990    2.6650    1.0160 o         1 MOL     -0.523898
     83 C27         3.7680    1.0200   -0.4190 c3        1 MOL      0.848590
     84 C28         3.5680    1.0620    1.0930 c3        1 MOL     -0.506215
     85 O15         3.2440   -0.0190   -1.1120 oh        1 MOL     -0.852613
     86 H35         5.9130   -0.3060    0.9050 hn        1 MOL      0.193539
     87 H36         5.4620    1.1620   -1.6510 h1        1 MOL      0.046027
     88 H37         3.2690    1.9090   -0.8200 h1        1 MOL     -0.125365
     89 H38         2.9420    0.2210   -1.9950 ho        1 MOL      0.430538
     90 H39         3.9230    0.1650    1.5830 hc        1 MOL      0.141405
     91 H40         3.7440    1.9580    1.6690 hc        1 MOL      0.141405
     92 H41         2.4800    1.0660    1.1890 hc        1 MOL      0.141405
     93 N9          5.3470    3.6820   -0.7690 n         1 MOL     -0.665876
     94 C29         5.4080    5.0380   -0.3000 c3        1 MOL      0.092846
     95 C30         4.2310    5.4490    0.5580 c         1 MOL      0.447954
     96 O16         4.3790    5.9510    1.6500 o         1 MOL     -0.525657
     97 C31         5.6430    6.0910   -1.3860 c3        1 MOL      0.201487
     98 C32         6.9120    5.6570   -2.1800 c3        1 MOL     -0.086913
     99 C33         5.7980    7.4150   -0.7550 c3        1 MOL     -0.268346
    100 C34         7.5590    6.6670   -3.0990 c3        1 MOL     -0.153097
    101 H42         4.8550    3.4130   -1.6130 hn        1 MOL      0.310103
    102 H43         6.2330    5.2100    0.3910 h1        1 MOL      0.088153
    103 H44         4.8500    6.1860   -2.1270 hc        1 MOL     -0.021651
    104 H45         6.5720    4.7540   -2.6950 hc        1 MOL      0.045220
    105 H46         7.6460    5.3360   -1.4300 hc        1 MOL      0.045220
    106 H47         4.8390    7.7890   -0.4030 hc        1 MOL      0.068877
    107 H48         6.4880    7.3450    0.0860 hc        1 MOL      0.068877
    108 H49         6.1400    8.1310   -1.4970 hc        1 MOL      0.068877
    109 H50         6.9250    6.7700   -3.9720 hc        1 MOL      0.045759
    110 H51         7.8320    7.6350   -2.6920 hc        1 MOL      0.045759
    111 H52         8.5160    6.2590   -3.4220 hc        1 MOL      0.045759
    112 N10         2.9940    5.0750    0.1720 n         1 MOL     -0.255977
    113 C35         1.7690    5.1420    1.0020 c3        1 MOL     -0.026751
    114 C36         0.8830    3.8980    0.8370 c         1 MOL      0.344860
    115 O17         0.7200    3.2370   -0.2630 o         1 MOL     -0.437257
    116 C37         0.8220    6.2970    0.5590 c3        1 MOL      0.238324
    117 C38         0.6430    6.4280   -0.9510 c3        1 MOL     -0.198633
    118 O18         1.4990    7.5400    0.7880 oh        1 MOL     -0.595380
    119 H53         2.9070    4.6950   -0.7680 hn        1 MOL      0.222874
    120 H54         2.0030    5.2330    2.0630 h1        1 MOL      0.110076
    121 H55        -0.1290    6.2380    1.0760 h1        1 MOL      0.043153
    122 H56         1.5460    7.7890    1.7160 ho        1 MOL      0.377038
    123 H57         0.2520    5.5020   -1.3840 hc        1 MOL      0.060020
    124 H58        -0.0120    7.2470   -1.2140 hc        1 MOL      0.060020
    125 H59         1.5610    6.3980   -1.5380 hc        1 MOL      0.060020
    126 N11         0.1610    3.5840    1.8740 n         1 MOL     -0.452389
    127 C39        -1.0280    2.6480    1.8420 c3        1 MOL     -0.056863
    128 C40        -2.0610    3.1750    0.8530 c         1 MOL      0.339938
    129 O19        -2.1510    4.3880    0.6650 o         1 MOL     -0.484862
    130 C41        -1.6530    2.2590    3.2110 c3        1 MOL      0.497392
    131 C42        -2.1820    3.4950    3.9640 c3        1 MOL     -0.429801
    132 O20        -0.6860    1.7370    4.0840 oh        1 MOL     -0.609654
    133 H60         0.3430    4.0070    2.7790 hn        1 MOL      0.311274
    134 H61        -0.6580    1.7040    1.4370 h1        1 MOL      0.053627
    135 H62        -2.4050    1.4920    3.0270 h1        1 MOL     -0.069677
    136 H63        -0.2740    0.9690    3.6700 ho        1 MOL      0.318887
    137 H64        -2.5850    3.1920    4.9270 hc        1 MOL      0.107927
    138 H65        -1.3110    4.1550    4.0890 hc        1 MOL      0.107927
    139 H66        -2.9640    3.9650    3.3810 hc        1 MOL      0.107927
    140 N12        -2.7770    2.2990    0.1260 n         1 MOL      0.017064
    141 C43        -3.5600    2.7700   -1.0170 c3        1 MOL     -0.062079
    142 C44        -3.5850    1.7000   -2.1660 c         1 MOL      0.698606
    143 O21        -3.3910    2.0260   -3.3550 o         1 MOL     -0.637504
    144 C45        -4.9390    3.3300   -0.7240 c3        1 MOL     -0.246720
    145 C46        -5.5840    4.0050   -1.9810 c3        1 MOL      0.238629
    146 C47        -6.8940    4.8070   -1.7130 c3        1 MOL     -0.021394
    147 C48        -6.6430    5.9580   -0.7780 c3        1 MOL     -0.089763
    148 N13        -5.8680    7.0150   -1.3660 n4        1 MOL     -0.429229
    149 H67        -2.8680    1.3190    0.3580 hn        1 MOL     -0.166733
    150 H68        -2.9970    3.5660   -1.4980 h1        1 MOL      0.053480
    151 H69        -4.8460    4.0630    0.0770 hc        1 MOL      0.077751
    152 H70        -5.5520    2.4470   -0.5510 hc        1 MOL      0.077751
    153 H71        -5.8190    3.2740   -2.7500 hc        1 MOL     -0.060610
    154 H72        -4.9310    4.8050   -2.3350 hc        1 MOL     -0.060610
    155 H73        -7.6610    4.1600   -1.2920 hc        1 MOL      0.046081
    156 H74        -7.2490    5.2390   -2.6400 hc        1 MOL      0.046081
    157 H75        -6.1070    5.6320    0.1150 hx        1 MOL      0.116681
    158 H76        -7.5960    6.3160   -0.4130 hx        1 MOL      0.116681
    159 H77        -6.2120    7.0880   -2.3110 hn        1 MOL      0.352035
    160 H78        -6.0590    7.9010   -0.9110 hn        1 MOL      0.352035
    161 H79        -4.8800    6.8080   -1.2930 hn        1 MOL      0.352035
    162 N14        -3.9600    0.4690   -1.8440 n         1 MOL      0.161411
    163 C49        -4.0260   -0.6620   -2.7780 c3        1 MOL     -1.061958
    164 C50        -5.4740   -0.9490   -3.3180 c         1 MOL      0.537590
    165 O22        -6.4120   -0.9570   -2.5520 o         1 MOL     -0.501033
    166 C51        -3.4800   -1.9180   -1.9940 c3        1 MOL      0.955778
    167 C52        -3.4240   -3.1380   -2.7960 c3        1 MOL     -1.004410
    168 C53        -2.7350   -3.0180   -4.0880 c         1 MOL      0.924009
    169 O23        -3.3440   -2.5490   -5.0660 o         1 MOL     -0.763875
    170 O24        -1.5610   -3.4530   -4.1370 o         1 MOL     -0.763875
    171 H80        -4.1150    0.3000   -0.8550 hn        1 MOL      0.024504
    172 H81        -3.3260   -0.4570   -3.5880 h1        1 MOL      0.354241
    173 H82        -4.1670   -2.1430   -1.1780 hc        1 MOL     -0.097376
    174 H83        -2.5180   -1.6110   -1.5950 hc        1 MOL     -0.097376
    175 H84        -4.4510   -3.4530   -2.9840 hc        1 MOL      0.232333
    176 H85        -3.0610   -3.8610   -2.0710 hc        1 MOL      0.232333
    177 N15        -5.6870   -1.2090   -4.6090 n         1 MOL     -0.278176
    178 C54        -6.9350   -1.5480   -5.2060 c3        1 MOL      0.044648
    179 H86        -6.9890   -1.1140   -6.2040 h1        1 MOL      0.020834
    180 H87        -7.0230   -2.6330   -5.2760 h1        1 MOL      0.020834
    181 H88        -7.7490   -1.1560   -4.5950 h1        1 MOL      0.020834
    182 H89        -4.8480   -1.2200   -5.1680 hn        1 MOL      0.335237
    183 Ca1         1.0980   -3.5870   -3.8410 Ca        1 MOL      1.792988
    184 O25         1.4420   -4.7380   -6.4300 oh        1 MOL     -0.851468
    185 H90         2.0510   -5.3720   -6.8150 ho        1 MOL      0.422328
    186 H91         1.0190   -4.3260   -7.1820 ho        1 MOL      0.422328
    187 O26        -0.3950   -5.8780   -4.5010 oh        1 MOL     -0.851468
    188 H92        -0.5170   -6.7750   -4.8120 ho        1 MOL      0.422328
    189 H93        -1.2810   -5.5280   -4.4040 ho        1 MOL      0.422328
    190 O27         3.2790   -2.5170   -4.7610 oh        1 MOL     -0.851468
    191 H94         3.0560   -1.9740   -5.5190 ho        1 MOL      0.422328
    192 H95         4.0570   -2.0860   -4.3970 ho        1 MOL      0.422328
    193 O28         0.7210   -1.9100   -5.9750 oh        1 MOL     -0.851468
    194 H96         0.8600   -1.9350   -6.9140 ho        1 MOL      0.422328
    195 H97         0.5440   -0.9840   -5.7830 ho        1 MOL      0.422328
    196 O29         2.8280   -2.6850   -1.9350 oh        1 MOL     -0.851468
    197 H98         3.7600   -2.8650   -1.8220 ho        1 MOL      0.422328
    198 H99         2.7240   -1.7710   -1.6990 ho        1 MOL      0.422328
@<TRIPOS>BOND
     1    1    2 1   
     2    1    4 1   
     3    1    5 1   
     4    1    6 1   
     5    2    3 2   
     6    2    7 1   
     7    7    8 1   
     8    7   15 1   
     9    8    9 1   
    10    8   11 1   
    11    8   16 1   
    12    9   10 2   
    13    9   19 1   
    14   11   12 1   
    15   11   17 1   
    16   11   18 1   
    17   12   13 1   
    18   12   14 1   
    19   19   20 1   
    20   19   28 1   
    21   20   21 1   
    22   20   23 1   
    23   20   29 1   
    24   21   22 2   
    25   21   41 1   
    26   23   24 1   
    27   23   30 1   
    28   23   31 1   
    29   24   25 1   
    30   24   32 1   
    31   24   33 1   
    32   25   26 1   
    33   25   34 1   
    34   25   35 1   
    35   26   27 1   
    36   26   36 1   
    37   26   37 1   
    38   27   38 1   
    39   27   39 1   
    40   27   40 1   
    41   41   42 1   
    42   41   49 1   
    43   42   43 1   
    44   42   45 1   
    45   42   50 1   
    46   43   44 2   
    47   43   53 1   
    48   45   46 1   
    49   45   51 1   
    50   45   52 1   
    51   46   47 1   
    52   46   48 1   
    53   53   54 1   
    54   53   57 1   
    55   54   55 1   
    56   54   58 1   
    57   54   59 1   
    58   55   56 2   
    59   55   60 1   
    60   60   61 1   
    61   60   68 1   
    62   61   62 1   
    63   61   64 1   
    64   61   69 1   
    65   62   63 2   
    66   62   72 1   
    67   64   65 1   
    68   64   70 1   
    69   64   71 1   
    70   65   66 1   
    71   65   67 1   
    72   72   73 1   
    73   72   76 1   
    74   73   74 1   
    75   73   77 1   
    76   73   78 1   
    77   74   75 2   
    78   74   79 1   
    79   79   80 1   
    80   79   86 1   
    81   80   81 1   
    82   80   83 1   
    83   80   87 1   
    84   81   82 2   
    85   81   93 1   
    86   83   84 1   
    87   83   85 1   
    88   83   88 1   
    89   84   90 1   
    90   84   91 1   
    91   84   92 1   
    92   85   89 1   
    93   93   94 1   
    94   93  101 1   
    95   94   95 1   
    96   94   97 1   
    97   94  102 1   
    98   95   96 2   
    99   95  112 1   
   100   97   98 1   
   101   97   99 1   
   102   97  103 1   
   103   98  100 1   
   104   98  104 1   
   105   98  105 1   
   106   99  106 1   
   107   99  107 1   
   108   99  108 1   
   109  100  109 1   
   110  100  110 1   
   111  100  111 1   
   112  112  113 1   
   113  112  119 1   
   114  113  114 1   
   115  113  116 1   
   116  113  120 1   
   117  114  115 2   
   118  114  126 1   
   119  116  117 1   
   120  116  118 1   
   121  116  121 1   
   122  117  123 1   
   123  117  124 1   
   124  117  125 1   
   125  118  122 1   
   126  126  127 1   
   127  126  133 1   
   128  127  128 1   
   129  127  130 1   
   130  127  134 1   
   131  128  129 2   
   132  128  140 1   
   133  130  131 1   
   134  130  132 1   
   135  130  135 1   
   136  131  137 1   
   137  131  138 1   
   138  131  139 1   
   139  132  136 1   
   140  140  141 1   
   141  140  149 1   
   142  141  142 1   
   143  141  144 1   
   144  141  150 1   
   145  142  143 2   
   146  142  162 1   
   147  144  145 1   
   148  144  151 1   
   149  144  152 1   
   150  145  146 1   
   151  145  153 1   
   152  145  154 1   
   153  146  147 1   
   154  146  155 1   
   155  146  156 1   
   156  147  148 1   
   157  147  157 1   
   158  147  158 1   
   159  148  159 1   
   160  148  160 1   
   161  148  161 1   
   162  162  163 1   
   163  162  171 1   
   164  163  164 1   
   165  163  166 1   
   166  163  172 1   
   167  164  165 2   
   168  164  177 1   
   169  166  167 1   
   170  166  173 1   
   171  166  174 1   
   172  167  168 1   
   173  167  175 1   
   174  167  176 1   
   175  168  169 1   
   176  168  170 1   
   177  177  178 1   
   178  177  182 1   
   179  178  179 1   
   180  178  180 1   
   181  178  181 1   
   182  184  185 1   
   183  184  186 1   
   184  187  188 1   
   185  187  189 1   
   186  190  191 1   
   187  190  192 1   
   188  193  194 1   
   189  193  195 1   
   190  196  197 1   
   191  196  198 1   
@<TRIPOS>SUBSTRUCTURE
     1 MOL         1 TEMP              0 ****  ****    0 ROOT
