@<TRIPOS>MOLECULE
MOL
  192   187     1     0     0
SMALL
resp


@<TRIPOS>ATOM
      1 C1         11.9960    5.6710   -2.8450 c3        1 MOL     -0.383048
      2 C2         11.7370    4.4010   -2.0810 c         1 MOL      0.605292
      3 O1         12.5160    3.4430   -2.2660 o         1 MOL     -0.576540
      4 H1         12.1070    6.5000   -2.1460 hc        1 MOL      0.103169
      5 H2         12.9110    5.5650   -3.4290 hc        1 MOL      0.103169
      6 H3         11.1590    5.8700   -3.5140 hc        1 MOL      0.103169
      7 N1         10.7240    4.4270   -1.2050 n         1 MOL     -0.089718
      8 C3         10.4100    3.3150   -0.3980 c3        1 MOL     -0.521579
      9 C4          9.0620    2.5650   -0.7780 c         1 MOL      0.598064
     10 O2          7.9510    3.0860   -1.0410 o         1 MOL     -0.597023
     11 C5         10.3450    3.8040    1.0330 c3        1 MOL      0.107743
     12 C6          9.5300    5.0400    1.2260 c         1 MOL      0.584176
     13 O3          9.9410    6.0210    1.9040 o         1 MOL     -0.670896
     14 O4          8.3760    5.1500    0.6510 o         1 MOL     -0.670896
     15 H4         10.0090    5.1290   -1.2970 hn        1 MOL      0.116637
     16 H5         11.2870    2.6760   -0.4870 h1        1 MOL      0.181233
     17 H6         11.3340    4.0460    1.4260 hc        1 MOL      0.040183
     18 H7          9.9860    2.8890    1.5160 hc        1 MOL      0.040183
     19 N2          9.1700    1.2160   -0.6510 n         1 MOL     -0.444381
     20 C7          8.1360    0.1710   -0.6650 c3        1 MOL      0.047192
     21 C8          7.3140    0.2420    0.6020 c         1 MOL      0.550537
     22 O5          7.8190    0.1650    1.7330 o         1 MOL     -0.517830
     23 C9          8.8350   -1.2200   -0.6960 c3        1 MOL     -0.217754
     24 C10         7.9380   -2.1910   -1.4680 c3        1 MOL      0.048445
     25 C11         8.6130   -3.5390   -1.5850 c3        1 MOL     -0.167745
     26 C12         7.8290   -4.5220   -2.4950 c3        1 MOL      0.039231
     27 N3          8.4900   -5.7670   -2.7790 n4        1 MOL     -0.335517
     28 H8         10.0430    0.8890   -0.2770 hn        1 MOL      0.318317
     29 H9          7.4530    0.3390   -1.4880 h1        1 MOL      0.053222
     30 H10         9.0770   -1.6250    0.2940 hc        1 MOL      0.085427
     31 H11         9.7910   -1.1040   -1.2140 hc        1 MOL      0.085427
     32 H12         7.6980   -1.8640   -2.4800 hc        1 MOL      0.028168
     33 H13         6.9720   -2.3670   -0.9960 hc        1 MOL      0.028168
     34 H14         8.6060   -3.8410   -0.5360 hc        1 MOL      0.092784
     35 H15         9.6260   -3.5080   -1.9760 hc        1 MOL      0.092784
     36 H16         7.5170   -3.9860   -3.3870 hx        1 MOL      0.078513
     37 H17         6.9050   -4.7020   -1.9400 hx        1 MOL      0.078513
     38 H18         7.9420   -6.2650   -3.4630 hn        1 MOL      0.295174
     39 H19         9.4340   -5.6410   -3.1200 hn        1 MOL      0.295174
     40 H20         8.6960   -6.3230   -1.9530 hn        1 MOL      0.295174
     41 N4          6.0230    0.4690    0.4250 n         1 MOL     -0.264061
     42 C13         4.9980    0.3290    1.4970 c3        1 MOL      0.071568
     43 C14         3.6610    0.2690    0.6720 c         1 MOL      0.231780
     44 O6          3.5410    0.7670   -0.4620 o         1 MOL     -0.444768
     45 C15         4.8600    1.4800    2.5510 c3        1 MOL     -0.043362
     46 C16         5.1570    2.7700    1.8660 c         1 MOL      0.575014
     47 O7          4.2770    3.3450    1.1270 o         1 MOL     -0.667886
     48 O8          6.2530    3.3280    1.9270 o         1 MOL     -0.667886
     49 H21         5.6590    0.4990   -0.5170 hn        1 MOL      0.146975
     50 H22         5.1810   -0.6170    2.0010 h1        1 MOL      0.073418
     51 H23         5.5790    1.2960    3.3560 hc        1 MOL      0.048591
     52 H24         3.8640    1.4540    2.9950 hc        1 MOL      0.048591
     53 N5          2.7020   -0.5040    1.1540 n         1 MOL     -0.120050
     54 C17         2.7410   -1.3570    2.3350 c3        1 MOL     -0.211363
     55 C18         3.1600   -2.7920    2.1450 c         1 MOL      0.546199
     56 O9          3.3340   -3.2090    0.9950 o         1 MOL     -0.498234
     57 H25         1.8670   -0.5450    0.5950 hn        1 MOL      0.241788
     58 H26         1.7180   -1.3670    2.7270 h1        1 MOL      0.076279
     59 H27         3.3670   -0.9240    3.1100 h1        1 MOL      0.076279
     60 N6          3.4280   -3.5620    3.1640 n         1 MOL     -0.280025
     61 C19         3.7590   -4.9570    3.1140 c3        1 MOL     -0.095234
     62 C20         2.6970   -5.8270    2.4520 c         1 MOL      0.459560
     63 O10         2.9700   -6.7600    1.6960 o         1 MOL     -0.516050
     64 C21         4.2050   -5.4670    4.5360 c3        1 MOL     -0.127005
     65 C22         5.3400   -4.6350    5.1210 c         1 MOL      0.646812
     66 O11         5.1220   -4.2510    6.2960 o         1 MOL     -0.643970
     67 O12         6.3160   -4.1670    4.4730 o         1 MOL     -0.643970
     68 H28         3.2970   -3.1940    4.0930 hn        1 MOL      0.280465
     69 H29         4.6500   -4.9910    2.4920 h1        1 MOL      0.080654
     70 H30         4.5640   -6.4950    4.4040 hc        1 MOL      0.029016
     71 H31         3.3400   -5.4500    5.2100 hc        1 MOL      0.029016
     72 N7          1.4220   -5.6000    2.6960 n         1 MOL     -0.208104
     73 C23         0.3050   -6.2570    1.9770 c3        1 MOL     -0.267422
     74 C24         0.1610   -5.8170    0.5280 c         1 MOL      0.661357
     75 O13        -0.5210   -6.5000   -0.2170 o         1 MOL     -0.597483
     76 H32         1.2150   -4.8140    3.2900 hn        1 MOL      0.223115
     77 H33        -0.5840   -5.8700    2.4820 h1        1 MOL      0.127391
     78 H34         0.3160   -7.3490    1.9740 h1        1 MOL      0.127391
     79 N8          0.7490   -4.7180    0.1120 n         1 MOL     -0.279036
     80 C25         0.6410   -4.1590   -1.2830 c3        1 MOL      0.054972
     81 C26         0.1090   -2.7310   -1.2400 c         1 MOL      0.534234
     82 O14         0.2300   -2.1420   -0.2150 o         1 MOL     -0.494612
     83 C27         2.0440   -4.1590   -1.9210 c3        1 MOL      0.228280
     84 C28         2.7720   -5.5040   -1.8870 c3        1 MOL     -0.280375
     85 O15         1.9500   -3.5820   -3.1950 oh        1 MOL     -0.599922
     86 H35         1.5270   -4.3230    0.6240 hn        1 MOL      0.070799
     87 H36         0.0070   -4.8360   -1.8590 h1        1 MOL      0.065817
     88 H37         2.6890   -3.4650   -1.3750 h1        1 MOL      0.021124
     89 H38         2.8550   -3.5920   -3.5030 ho        1 MOL      0.382735
     90 H39         2.7590   -5.9860   -0.9170 hc        1 MOL      0.078016
     91 H40         2.2920   -6.2080   -2.5710 hc        1 MOL      0.078016
     92 H41         3.8130   -5.4190   -2.2080 hc        1 MOL      0.078016
     93 N9         -0.4940   -2.2260   -2.2540 n         1 MOL     -0.406070
     94 C29        -1.0690   -0.8760   -2.1600 c3        1 MOL      0.022448
     95 C30        -2.4040   -0.8960   -1.3860 c         1 MOL      0.572233
     96 O16        -2.6040    0.0150   -0.6140 o         1 MOL     -0.537830
     97 C31        -1.1080   -0.3020   -3.5760 c3        1 MOL      0.125576
     98 C32         0.2700   -0.5320   -4.3440 c3        1 MOL      0.154743
     99 C33        -1.4200    1.2140   -3.6880 c3        1 MOL     -0.516500
    100 C34         1.5930    0.0100   -3.6790 c3        1 MOL     -0.240968
    101 H42        -0.4150   -2.6910   -3.1420 hn        1 MOL      0.240927
    102 H43        -0.4760   -0.2300   -1.5100 h1        1 MOL      0.088443
    103 H44        -1.8350   -0.8110   -4.2060 hc        1 MOL      0.001312
    104 H45         0.1650   -0.1000   -5.3400 hc        1 MOL     -0.034057
    105 H46         0.5390   -1.5470   -4.6340 hc        1 MOL     -0.034057
    106 H47        -1.5160    1.4680   -4.7350 hc        1 MOL      0.143674
    107 H48        -2.3670    1.4550   -3.1890 hc        1 MOL      0.143674
    108 H49        -0.6870    1.8220   -3.1530 hc        1 MOL      0.143674
    109 H50         2.4460   -0.5470   -4.0730 hc        1 MOL      0.052646
    110 H51         1.6590    1.0920   -3.6850 hc        1 MOL      0.052646
    111 H52         1.5020   -0.3670   -2.6630 hc        1 MOL      0.052646
    112 N10        -3.3800   -1.7960   -1.6230 n         1 MOL     -0.468015
    113 C35        -4.6120   -1.9680   -0.7480 c3        1 MOL     -0.003054
    114 C36        -5.8560   -2.3230   -1.5650 c         1 MOL      0.632738
    115 O17        -5.7840   -3.0090   -2.5670 o         1 MOL     -0.535664
    116 C37        -4.3970   -3.0320    0.3760 c3        1 MOL      0.373504
    117 C38        -3.9950   -4.4110   -0.1050 c3        1 MOL     -0.108477
    118 O18        -3.5230   -2.5400    1.4390 oh        1 MOL     -0.593211
    119 H53        -3.2390   -2.4700   -2.3560 hn        1 MOL      0.236906
    120 H54        -4.8680   -1.0160   -0.2800 h1        1 MOL      0.075345
    121 H55        -5.3700   -3.2230    0.8250 h1        1 MOL     -0.075112
    122 H56        -4.0280   -1.8590    1.8980 ho        1 MOL      0.381184
    123 H57        -2.9590   -4.5250   -0.4350 hc        1 MOL      0.032377
    124 H58        -4.1570   -5.0770    0.7390 hc        1 MOL      0.032377
    125 H59        -4.6970   -4.7480   -0.8620 hc        1 MOL      0.032377
    126 N11        -7.0370   -1.9010   -1.1500 n         1 MOL     -0.608813
    127 C39        -8.3520   -2.0960   -1.7840 c3        1 MOL      0.060108
    128 C40        -9.2560   -0.9170   -1.7430 c         1 MOL      0.671639
    129 O19        -9.8780   -0.6740   -2.7570 o         1 MOL     -0.575018
    130 C41        -9.0010   -3.4030   -1.1840 c3        1 MOL      0.334461
    131 C42       -10.3570   -3.7240   -1.6540 c3        1 MOL     -0.467344
    132 O20        -9.0540   -3.3710    0.1740 oh        1 MOL     -0.621717
    133 H60        -7.0370   -1.3350   -0.3210 hn        1 MOL      0.272769
    134 H61        -8.2140   -2.3900   -2.8270 h1        1 MOL      0.081827
    135 H62        -8.3300   -4.2190   -1.4440 h1        1 MOL      0.034629
    136 H63        -8.7260   -4.2280    0.4270 ho        1 MOL      0.416858
    137 H64       -10.5200   -4.7390   -1.2920 hc        1 MOL      0.117433
    138 H65       -10.9600   -2.9720   -1.1290 hc        1 MOL      0.117433
    139 H66       -10.6180   -3.4740   -2.6820 hc        1 MOL      0.117433
    140 N12        -9.3250   -0.1190   -0.6630 n         1 MOL     -0.438186
    141 C43       -10.2760    0.9760   -0.4560 c3        1 MOL      0.007224
    142 C44        -9.7260    2.0790    0.4050 c         1 MOL      0.501127
    143 O21        -8.8810    1.7590    1.2590 o         1 MOL     -0.461908
    144 C45       -11.5820    0.3960    0.2070 c3        1 MOL     -0.180562
    145 C46       -12.4640   -0.4160   -0.7400 c3        1 MOL      0.048626
    146 C47       -13.4460   -1.4370   -0.0860 c3        1 MOL     -0.042155
    147 C48       -14.4890   -0.8010    0.7110 c3        1 MOL      0.066574
    148 N13       -15.3710   -1.7700    1.4040 n4        1 MOL     -0.138893
    149 H67        -8.7740   -0.3700    0.1480 hn        1 MOL      0.270886
    150 H68       -10.5580    1.4160   -1.4200 h1        1 MOL      0.089175
    151 H69       -12.2010    1.1300    0.7130 hc        1 MOL      0.075252
    152 H70       -11.2380   -0.2840    0.9880 hc        1 MOL      0.075252
    153 H71       -11.7940   -1.0030   -1.3740 hc        1 MOL      0.030819
    154 H72       -12.9670    0.2780   -1.4120 hc        1 MOL      0.030819
    155 H73       -12.8680   -2.0870    0.5790 hc        1 MOL      0.023227
    156 H74       -13.8880   -1.9760   -0.9230 hc        1 MOL      0.023227
    157 H75       -15.0530   -0.1330    0.0650 hx        1 MOL      0.050644
    158 H76       -13.9180   -0.1960    1.4170 hx        1 MOL      0.050644
    159 H77       -14.9070   -2.6420    1.6150 hn        1 MOL      0.211316
    160 H78       -15.8180   -1.4050    2.2360 hn        1 MOL      0.211316
    161 H79       -16.1930   -2.0320    0.8700 hn        1 MOL      0.211316
    162 N14       -10.1500    3.3550    0.2660 n         1 MOL     -0.484841
    163 C49        -9.7000    4.3470    1.2230 c3        1 MOL      0.242925
    164 C50        -8.1530    4.3680    1.4630 c         1 MOL      0.208649
    165 O22        -7.7230    4.1310    2.6090 o         1 MOL     -0.471447
    166 C51       -10.3020    5.7770    0.9880 c3        1 MOL     -0.182211
    167 C52        -9.5850    6.9320    1.8510 c3        1 MOL     -0.110484
    168 C53       -10.3280    8.2440    1.5770 c         1 MOL      0.688589
    169 O23       -10.0140    8.8310    0.5370 o         1 MOL     -0.651462
    170 O24       -11.0970    8.7140    2.4730 o         1 MOL     -0.651462
    171 H80       -10.9050    3.5110   -0.3920 hn        1 MOL      0.281100
    172 H81       -10.1430    4.0950    2.1900 h1        1 MOL      0.038043
    173 H82       -11.3800    5.7580    1.1380 hc        1 MOL      0.052951
    174 H83       -10.1800    6.0130   -0.0740 hc        1 MOL      0.052951
    175 H84        -8.5140    7.0130    1.6590 hc        1 MOL      0.039217
    176 H85        -9.7500    6.6980    2.9080 hc        1 MOL      0.039217
    177 N15        -7.3950    4.6620    0.3990 n         1 MOL     -0.130310
    178 C54        -7.5730    4.7170   -1.0320 c3        1 MOL     -0.178159
    179 H86        -7.9300    3.7520   -1.3910 h1        1 MOL      0.081522
    180 H87        -8.3030    5.4890   -1.2790 h1        1 MOL      0.081522
    181 H88        -6.6210    4.9510   -1.5090 h1        1 MOL      0.081522
    182 H89        -6.4460    4.9180    0.6340 hn        1 MOL      0.239648
    183 Ca1         6.1030    4.8910   -0.2780 Ca        1 MOL      1.681478
    184 O25         4.9700    6.7570    1.4690 oh        1 MOL     -0.806266
    185 H90         4.3740    7.4960    1.4120 ho        1 MOL      0.403196
    186 H91         5.7620    7.1230    1.8740 ho        1 MOL      0.403196
    187 O26         5.4130    2.9570   -1.9810 oh        1 MOL     -0.806266
    188 H92         5.9020    3.0210   -2.7990 ho        1 MOL      0.403196
    189 H93         5.1560    2.0380   -1.9180 ho        1 MOL      0.403196
    190 O27         3.7670    5.5010   -1.2080 oh        1 MOL     -0.806266
    191 H94         2.9310    5.0430   -1.0940 ho        1 MOL      0.403196
    192 H95         3.5330    6.4220   -1.2720 ho        1 MOL      0.403196
@<TRIPOS>BOND
     1    1    2 1   
     2    1    4 1   
     3    1    5 1   
     4    1    6 1   
     5    2    3 2   
     6    2    7 1   
     7    7    8 1   
     8    7   15 1   
     9    8    9 1   
    10    8   11 1   
    11    8   16 1   
    12    9   10 2   
    13    9   19 1   
    14   11   12 1   
    15   11   17 1   
    16   11   18 1   
    17   12   13 1   
    18   12   14 1   
    19   19   20 1   
    20   19   28 1   
    21   20   21 1   
    22   20   23 1   
    23   20   29 1   
    24   21   22 2   
    25   21   41 1   
    26   23   24 1   
    27   23   30 1   
    28   23   31 1   
    29   24   25 1   
    30   24   32 1   
    31   24   33 1   
    32   25   26 1   
    33   25   34 1   
    34   25   35 1   
    35   26   27 1   
    36   26   36 1   
    37   26   37 1   
    38   27   38 1   
    39   27   39 1   
    40   27   40 1   
    41   41   42 1   
    42   41   49 1   
    43   42   43 1   
    44   42   45 1   
    45   42   50 1   
    46   43   44 2   
    47   43   53 1   
    48   45   46 1   
    49   45   51 1   
    50   45   52 1   
    51   46   47 1   
    52   46   48 1   
    53   53   54 1   
    54   53   57 1   
    55   54   55 1   
    56   54   58 1   
    57   54   59 1   
    58   55   56 2   
    59   55   60 1   
    60   60   61 1   
    61   60   68 1   
    62   61   62 1   
    63   61   64 1   
    64   61   69 1   
    65   62   63 2   
    66   62   72 1   
    67   64   65 1   
    68   64   70 1   
    69   64   71 1   
    70   65   66 1   
    71   65   67 1   
    72   72   73 1   
    73   72   76 1   
    74   73   74 1   
    75   73   77 1   
    76   73   78 1   
    77   74   75 2   
    78   74   79 1   
    79   79   80 1   
    80   79   86 1   
    81   80   81 1   
    82   80   83 1   
    83   80   87 1   
    84   81   82 2   
    85   81   93 1   
    86   83   84 1   
    87   83   85 1   
    88   83   88 1   
    89   84   90 1   
    90   84   91 1   
    91   84   92 1   
    92   85   89 1   
    93   93   94 1   
    94   93  101 1   
    95   94   95 1   
    96   94   97 1   
    97   94  102 1   
    98   95   96 2   
    99   95  112 1   
   100   97   98 1   
   101   97   99 1   
   102   97  103 1   
   103   98  100 1   
   104   98  104 1   
   105   98  105 1   
   106   99  106 1   
   107   99  107 1   
   108   99  108 1   
   109  100  109 1   
   110  100  110 1   
   111  100  111 1   
   112  112  113 1   
   113  112  119 1   
   114  113  114 1   
   115  113  116 1   
   116  113  120 1   
   117  114  115 2   
   118  114  126 1   
   119  116  117 1   
   120  116  118 1   
   121  116  121 1   
   122  117  123 1   
   123  117  124 1   
   124  117  125 1   
   125  118  122 1   
   126  126  127 1   
   127  126  133 1   
   128  127  128 1   
   129  127  130 1   
   130  127  134 1   
   131  128  129 2   
   132  128  140 1   
   133  130  131 1   
   134  130  132 1   
   135  130  135 1   
   136  131  137 1   
   137  131  138 1   
   138  131  139 1   
   139  132  136 1   
   140  140  141 1   
   141  140  149 1   
   142  141  142 1   
   143  141  144 1   
   144  141  150 1   
   145  142  143 2   
   146  142  162 1   
   147  144  145 1   
   148  144  151 1   
   149  144  152 1   
   150  145  146 1   
   151  145  153 1   
   152  145  154 1   
   153  146  147 1   
   154  146  155 1   
   155  146  156 1   
   156  147  148 1   
   157  147  157 1   
   158  147  158 1   
   159  148  159 1   
   160  148  160 1   
   161  148  161 1   
   162  162  163 1   
   163  162  171 1   
   164  163  164 1   
   165  163  166 1   
   166  163  172 1   
   167  164  165 2   
   168  164  177 1   
   169  166  167 1   
   170  166  173 1   
   171  166  174 1   
   172  167  168 1   
   173  167  175 1   
   174  167  176 1   
   175  168  169 1   
   176  168  170 1   
   177  177  178 1   
   178  177  182 1   
   179  178  179 1   
   180  178  180 1   
   181  178  181 1   
   182  184  185 1   
   183  184  186 1   
   184  187  188 1   
   185  187  189 1   
   186  190  191 1   
   187  190  192 1   
@<TRIPOS>SUBSTRUCTURE
     1 MOL         1 TEMP              0 ****  ****    0 ROOT
