@<TRIPOS>MOLECULE
MOL
  192   187     1     0     0
SMALL
resp


@<TRIPOS>ATOM
      1 C1          8.8380    1.0120    2.3850 c3        1 MOL     -0.620667
      2 C2          7.8720    0.4160    1.4290 c         1 MOL      0.853227
      3 O1          6.7190    0.1800    1.6910 o         1 MOL     -0.713074
      4 H1          8.7570    2.0990    2.3530 hc        1 MOL      0.159104
      5 H2          8.6150    0.6620    3.3930 hc        1 MOL      0.159104
      6 H3          9.8500    0.7160    2.1120 hc        1 MOL      0.159104
      7 N1          8.3450    0.0620    0.1940 n         1 MOL     -0.559789
      8 C3          7.5710   -0.3130   -0.9520 c3        1 MOL     -0.073616
      9 C4          7.0380   -1.7440   -1.0720 c         1 MOL      0.353973
     10 O2          6.9640   -2.2980   -2.1980 o         1 MOL     -0.404209
     11 C5          8.2970    0.0770   -2.2160 c3        1 MOL      0.009934
     12 C6          9.6540   -0.5160   -2.5720 c         1 MOL      0.588193
     13 O3         10.0380   -0.1710   -3.7400 o         1 MOL     -0.625447
     14 O4         10.1620   -1.4110   -1.8240 o         1 MOL     -0.625447
     15 H4          9.3270    0.2440    0.0410 hn        1 MOL      0.261830
     16 H5          6.7500    0.3900   -1.0830 h1        1 MOL      0.138337
     17 H6          8.3930    1.1630   -2.1350 hc        1 MOL      0.025936
     18 H7          7.6400   -0.0320   -3.0730 hc        1 MOL      0.025936
     19 N2          6.6250   -2.3390    0.0570 n         1 MOL     -0.319477
     20 C7          6.1060   -3.7290    0.1700 c3        1 MOL      0.117832
     21 C8          4.7050   -3.8270   -0.4180 c         1 MOL      0.424132
     22 O5          4.4220   -4.6980   -1.2170 o         1 MOL     -0.522232
     23 C9          6.1840   -4.1950    1.6630 c3        1 MOL     -0.093144
     24 C10         7.6560   -4.1800    2.1560 c3        1 MOL      0.105282
     25 C11         7.9080   -4.6270    3.5980 c3        1 MOL     -0.011954
     26 C12         9.4130   -4.4320    3.8950 c3        1 MOL      0.087646
     27 N3          9.8250   -4.3920    5.3140 n4        1 MOL     -0.275355
     28 H8          6.7070   -1.7620    0.8880 hn        1 MOL      0.298392
     29 H9          6.6750   -4.3860   -0.4890 h1        1 MOL      0.077759
     30 H10         5.7960   -5.2120    1.7650 hc        1 MOL      0.037615
     31 H11         5.6330   -3.4930    2.2860 hc        1 MOL      0.037615
     32 H12         8.1090   -3.1950    2.0150 hc        1 MOL     -0.023633
     33 H13         8.2320   -4.8680    1.5300 hc        1 MOL     -0.023633
     34 H14         7.5680   -5.6560    3.7580 hc        1 MOL      0.014010
     35 H15         7.2940   -3.9260    4.1710 hc        1 MOL      0.014010
     36 H16         9.8440   -3.5520    3.4130 hx        1 MOL      0.067694
     37 H17         9.9270   -5.2920    3.4710 hx        1 MOL      0.067694
     38 H18        10.8290   -4.3800    5.3650 hn        1 MOL      0.262549
     39 H19         9.5850   -3.5970    5.8820 hn        1 MOL      0.262549
     40 H20         9.4520   -5.2260    5.7510 hn        1 MOL      0.262549
     41 N4          3.7310   -2.9100   -0.2170 n         1 MOL     -0.384667
     42 C13         3.7030   -1.7600    0.7000 c3        1 MOL      0.088775
     43 C14         3.8000   -0.3910   -0.0940 c         1 MOL      0.320658
     44 O6          3.8770   -0.4390   -1.3620 o         1 MOL     -0.439615
     45 C15         2.4880   -1.7390    1.6280 c3        1 MOL     -0.342846
     46 C16         1.2020   -1.8150    0.8740 c         1 MOL      0.808720
     47 O7          0.9540   -0.9370    0.0010 o         1 MOL     -0.727003
     48 O8          0.3770   -2.7290    1.2300 o         1 MOL     -0.727003
     49 H21         2.8770   -3.0490   -0.7400 hn        1 MOL      0.346827
     50 H22         4.5990   -1.6990    1.3200 h1        1 MOL      0.060338
     51 H23         2.5030   -0.8670    2.2850 hc        1 MOL      0.069603
     52 H24         2.5940   -2.6260    2.2570 hc        1 MOL      0.069603
     53 N5          3.7870    0.7970    0.5320 n         1 MOL     -0.150966
     54 C17         4.0440    2.1000   -0.1080 c3        1 MOL     -0.124846
     55 C18         2.8170    2.6520   -0.8250 c         1 MOL      0.686365
     56 O9          1.6440    2.3170   -0.6070 o         1 MOL     -0.669912
     57 H25         3.7240    0.8240    1.5400 hn        1 MOL      0.235900
     58 H26         4.9160    2.0430   -0.7710 h1        1 MOL      0.074003
     59 H27         4.2590    2.7720    0.7220 h1        1 MOL      0.074003
     60 N6          3.1270    3.5930   -1.7070 n         1 MOL     -0.594983
     61 C19         2.1120    4.5270   -2.3410 c3        1 MOL      0.462028
     62 C20         2.5280    6.0140   -2.1610 c         1 MOL      0.354898
     63 O10         3.7190    6.2830   -2.0950 o         1 MOL     -0.530950
     64 C21         1.9420    4.0850   -3.8240 c3        1 MOL     -0.315190
     65 C22         1.4560    2.6370   -3.9190 c         1 MOL      0.789218
     66 O11         0.3370    2.3660   -3.5550 o         1 MOL     -0.704839
     67 O12         2.1770    1.8420   -4.6230 o         1 MOL     -0.704839
     68 H28         4.1060    3.8500   -1.7360 hn        1 MOL      0.313798
     69 H29         1.1490    4.5530   -1.8270 h1        1 MOL     -0.038999
     70 H30         2.8450    4.2380   -4.4250 hc        1 MOL      0.062306
     71 H31         1.1250    4.7050   -4.1880 hc        1 MOL      0.062306
     72 N7          1.6230    6.9870   -2.1340 n         1 MOL     -0.336544
     73 C23         0.1430    7.0100   -2.3050 c3        1 MOL     -0.183806
     74 C24        -0.6610    6.4540   -1.1310 c         1 MOL      0.718514
     75 O13        -0.2770    6.8200   -0.0250 o         1 MOL     -0.563389
     76 H32         2.0450    7.9030   -2.0480 hn        1 MOL      0.300327
     77 H33        -0.1680    6.4230   -3.1660 h1        1 MOL      0.091762
     78 H34        -0.1000    8.0420   -2.5410 h1        1 MOL      0.091762
     79 N8         -1.7510    5.7080   -1.3600 n         1 MOL     -0.709458
     80 C25        -2.6710    5.2010   -0.2750 c3        1 MOL      0.221131
     81 C26        -1.9530    4.0030    0.3680 c         1 MOL      0.802432
     82 O14        -1.2720    3.2110   -0.3120 o         1 MOL     -0.663551
     83 C27        -4.0280    4.7750   -0.7610 c3        1 MOL      0.264441
     84 C28        -4.8270    3.9820    0.2420 c3        1 MOL     -0.368625
     85 O15        -4.1380    4.1220   -1.9830 oh        1 MOL     -0.599855
     86 H35        -1.9310    5.4600   -2.3210 hn        1 MOL      0.354633
     87 H36        -2.8070    6.0060    0.4440 h1        1 MOL      0.025044
     88 H37        -4.5990    5.7040   -0.8580 h1        1 MOL     -0.005717
     89 H38        -5.0480    3.8870   -2.1570 ho        1 MOL      0.404138
     90 H39        -4.4070    2.9770    0.2340 hc        1 MOL      0.100051
     91 H40        -4.7850    4.4510    1.2300 hc        1 MOL      0.100051
     92 H41        -5.8990    3.9350    0.0070 hc        1 MOL      0.100051
     93 N9         -2.0360    3.8650    1.6800 n         1 MOL     -0.653944
     94 C29        -1.2910    2.9570    2.6020 c3        1 MOL     -0.175773
     95 C30        -1.4080    1.4490    2.3140 c         1 MOL      0.982760
     96 O16        -0.8720    0.9580    1.2640 o         1 MOL     -0.663277
     97 C31         0.1540    3.4820    2.6150 c3        1 MOL      0.043823
     98 C32         0.2810    4.9330    3.1040 c3        1 MOL     -0.247356
     99 C33         1.0510    2.5970    3.4630 c3        1 MOL     -0.278383
    100 C34         0.1110    5.2620    4.5050 c3        1 MOL      0.015942
    101 H42        -2.7110    4.4740    2.1230 hn        1 MOL      0.321086
    102 H43        -1.5670    3.2290    3.6190 h1        1 MOL      0.126094
    103 H44         0.5930    3.3200    1.6390 hc        1 MOL      0.087664
    104 H45        -0.3620    5.6240    2.5470 hc        1 MOL      0.108347
    105 H46         1.3120    5.1830    2.8630 hc        1 MOL      0.108347
    106 H47         1.2260    1.6690    2.9280 hc        1 MOL      0.079539
    107 H48         2.0490    2.9550    3.7390 hc        1 MOL      0.079539
    108 H49         0.4990    2.2950    4.3630 hc        1 MOL      0.079539
    109 H50         0.7450    4.7290    5.2150 hc        1 MOL      0.001078
    110 H51         0.2090    6.3410    4.6400 hc        1 MOL      0.001078
    111 H52        -0.9010    4.9910    4.7950 hc        1 MOL      0.001078
    112 N10        -2.1160    0.7570    3.2110 n         1 MOL     -0.731388
    113 C35        -2.5450   -0.6810    3.0240 c3        1 MOL      0.085103
    114 C36        -4.0750   -0.8640    3.1770 c         1 MOL      0.517077
    115 O17        -4.5800   -1.8770    3.6860 o         1 MOL     -0.587687
    116 C37        -1.7530   -1.5720    4.0000 c3        1 MOL      0.536143
    117 C38        -1.9480   -1.2100    5.4920 c3        1 MOL     -0.412761
    118 O18        -0.3340   -1.5120    3.7650 oh        1 MOL     -0.643943
    119 H53        -2.3140    1.2650    4.0630 hn        1 MOL      0.313804
    120 H54        -2.3220   -1.0780    2.0390 h1        1 MOL      0.039813
    121 H55        -2.1070   -2.5900    3.8440 h1        1 MOL     -0.033171
    122 H56        -0.1430   -1.8860    2.9000 ho        1 MOL      0.363210
    123 H57        -1.8840   -2.1160    6.0960 hc        1 MOL      0.096291
    124 H58        -1.1610   -0.5520    5.8560 hc        1 MOL      0.096291
    125 H59        -2.8680   -0.6370    5.6690 hc        1 MOL      0.096291
    126 N11        -4.8230    0.1330    2.7850 n         1 MOL     -0.238173
    127 C39        -6.2510    0.0810    2.7340 c3        1 MOL      0.043369
    128 C40        -6.7090   -0.5070    1.4300 c         1 MOL      0.497773
    129 O19        -6.9630    0.2630    0.4550 o         1 MOL     -0.552799
    130 C41        -6.8310    1.5910    2.9570 c3        1 MOL      0.469335
    131 C42        -8.3030    1.7960    3.3210 c3        1 MOL     -0.391146
    132 O20        -6.1020    2.2300    3.9570 oh        1 MOL     -0.727742
    133 H60        -4.4120    0.8990    2.2630 hn        1 MOL      0.206514
    134 H61        -6.6830   -0.5890    3.4770 h1        1 MOL      0.052939
    135 H62        -6.7600    2.1790    2.0480 h1        1 MOL     -0.030324
    136 H63        -6.5870    2.9750    4.3210 ho        1 MOL      0.436648
    137 H64        -8.6540    2.8270    3.3460 hc        1 MOL      0.091600
    138 H65        -8.9120    1.1670    2.6700 hc        1 MOL      0.091600
    139 H66        -8.3860    1.4000    4.3260 hc        1 MOL      0.091600
    140 N12        -6.6630   -1.8630    1.3810 n         1 MOL     -0.673028
    141 C43        -6.4580   -2.6630    0.1790 c3        1 MOL      0.399342
    142 C44        -5.1140   -2.3120   -0.5150 c         1 MOL      0.322952
    143 O21        -4.4810   -1.2970   -0.3290 o         1 MOL     -0.394852
    144 C45        -7.6120   -2.5170   -0.8980 c3        1 MOL     -0.589081
    145 C46        -9.0110   -2.8750   -0.3400 c3        1 MOL      0.096722
    146 C47       -10.1030   -2.8970   -1.4080 c3        1 MOL     -0.179436
    147 C48       -11.5450   -2.6870   -0.9230 c3        1 MOL     -0.067986
    148 N13       -12.0940   -3.9340   -0.4910 n4        1 MOL     -0.191550
    149 H67        -6.3040   -2.2250    2.2470 hn        1 MOL      0.349387
    150 H68        -6.4030   -3.7110    0.4900 h1        1 MOL      0.019463
    151 H69        -7.2990   -3.1670   -1.7170 hc        1 MOL      0.206343
    152 H70        -7.6170   -1.5020   -1.2980 hc        1 MOL      0.206343
    153 H71        -9.1560   -2.1830    0.4890 hc        1 MOL      0.039361
    154 H72        -9.0410   -3.8090    0.2310 hc        1 MOL      0.039361
    155 H73       -10.0420   -3.7470   -2.0770 hc        1 MOL      0.087083
    156 H74        -9.8650   -2.0280   -2.0310 hc        1 MOL      0.087083
    157 H75       -12.1920   -2.3930   -1.7560 hx        1 MOL      0.120808
    158 H76       -11.5400   -1.9150   -0.1580 hx        1 MOL      0.120808
    159 H77       -12.0950   -4.5790   -1.2680 hn        1 MOL      0.215321
    160 H78       -11.5030   -4.3550    0.2110 hn        1 MOL      0.215321
    161 H79       -13.0610   -3.8400   -0.2080 hn        1 MOL      0.215321
    162 N14        -4.6340   -3.2680   -1.2040 n         1 MOL     -0.468893
    163 C49        -3.3850   -3.0590   -2.0780 c3        1 MOL      0.364252
    164 C50        -2.1220   -2.7690   -1.2720 c         1 MOL      0.212515
    165 O22        -1.4330   -1.7880   -1.5380 o         1 MOL     -0.534323
    166 C51        -3.0690   -4.2550   -2.9710 c3        1 MOL     -0.158661
    167 C52        -4.0170   -4.5350   -4.1240 c3        1 MOL     -0.294587
    168 C53        -3.6080   -5.8290   -4.8090 c         1 MOL      0.762626
    169 O23        -2.7110   -5.8940   -5.6420 o         1 MOL     -0.658711
    170 O24        -4.2560   -6.8660   -4.5010 o         1 MOL     -0.658711
    171 H80        -5.1350   -4.1330   -1.2700 hn        1 MOL      0.292161
    172 H81        -3.5770   -2.1970   -2.7180 h1        1 MOL     -0.011597
    173 H82        -2.9580   -5.1330   -2.3310 hc        1 MOL      0.110749
    174 H83        -2.1270   -3.9930   -3.4670 hc        1 MOL      0.110749
    175 H84        -3.9760   -3.7730   -4.9050 hc        1 MOL      0.039578
    176 H85        -5.0660   -4.6870   -3.8910 hc        1 MOL      0.039578
    177 N15        -1.8170   -3.5310   -0.2480 n         1 MOL     -0.173471
    178 C54        -2.3170   -4.8010    0.2620 c3        1 MOL     -0.055904
    179 H86        -3.1250   -4.6150    0.9700 h1        1 MOL      0.039391
    180 H87        -2.6900   -5.4040   -0.5650 h1        1 MOL      0.039391
    181 H88        -1.5100   -5.3340    0.7660 h1        1 MOL      0.039391
    182 H89        -1.1180   -3.0120    0.2630 hn        1 MOL      0.296212
    183 Ca1        -0.4830    0.7550   -1.3610 Ca        1 MOL      1.846784
    184 O25        -3.1720    0.9670   -1.3340 oh        1 MOL     -0.904262
    185 H90        -3.8120    0.2470   -1.3570 ho        1 MOL      0.424887
    186 H91        -3.3430    1.4720   -2.1280 ho        1 MOL      0.424887
    187 O26         1.4310   -0.1730   -2.9760 oh        1 MOL     -0.904262
    188 H92         2.0030   -0.9000   -3.2170 ho        1 MOL      0.424887
    189 H93         1.4930    0.4390   -3.7070 ho        1 MOL      0.424887
    190 O27        -1.7460    0.5090   -3.7260 oh        1 MOL     -0.904262
    191 H94        -2.1210    1.1420   -4.3370 ho        1 MOL      0.424887
    192 H95        -1.6020   -0.2830   -4.2550 ho        1 MOL      0.424887
@<TRIPOS>BOND
     1    1    2 1   
     2    1    4 1   
     3    1    5 1   
     4    1    6 1   
     5    2    3 2   
     6    2    7 1   
     7    7    8 1   
     8    7   15 1   
     9    8    9 1   
    10    8   11 1   
    11    8   16 1   
    12    9   10 2   
    13    9   19 1   
    14   11   12 1   
    15   11   17 1   
    16   11   18 1   
    17   12   13 1   
    18   12   14 1   
    19   19   20 1   
    20   19   28 1   
    21   20   21 1   
    22   20   23 1   
    23   20   29 1   
    24   21   22 2   
    25   21   41 1   
    26   23   24 1   
    27   23   30 1   
    28   23   31 1   
    29   24   25 1   
    30   24   32 1   
    31   24   33 1   
    32   25   26 1   
    33   25   34 1   
    34   25   35 1   
    35   26   27 1   
    36   26   36 1   
    37   26   37 1   
    38   27   38 1   
    39   27   39 1   
    40   27   40 1   
    41   41   42 1   
    42   41   49 1   
    43   42   43 1   
    44   42   45 1   
    45   42   50 1   
    46   43   44 2   
    47   43   53 1   
    48   45   46 1   
    49   45   51 1   
    50   45   52 1   
    51   46   47 1   
    52   46   48 1   
    53   53   54 1   
    54   53   57 1   
    55   54   55 1   
    56   54   58 1   
    57   54   59 1   
    58   55   56 2   
    59   55   60 1   
    60   60   61 1   
    61   60   68 1   
    62   61   62 1   
    63   61   64 1   
    64   61   69 1   
    65   62   63 2   
    66   62   72 1   
    67   64   65 1   
    68   64   70 1   
    69   64   71 1   
    70   65   66 1   
    71   65   67 1   
    72   72   73 1   
    73   72   76 1   
    74   73   74 1   
    75   73   77 1   
    76   73   78 1   
    77   74   75 2   
    78   74   79 1   
    79   79   80 1   
    80   79   86 1   
    81   80   81 1   
    82   80   83 1   
    83   80   87 1   
    84   81   82 2   
    85   81   93 1   
    86   83   84 1   
    87   83   85 1   
    88   83   88 1   
    89   84   90 1   
    90   84   91 1   
    91   84   92 1   
    92   85   89 1   
    93   93   94 1   
    94   93  101 1   
    95   94   95 1   
    96   94   97 1   
    97   94  102 1   
    98   95   96 2   
    99   95  112 1   
   100   97   98 1   
   101   97   99 1   
   102   97  103 1   
   103   98  100 1   
   104   98  104 1   
   105   98  105 1   
   106   99  106 1   
   107   99  107 1   
   108   99  108 1   
   109  100  109 1   
   110  100  110 1   
   111  100  111 1   
   112  112  113 1   
   113  112  119 1   
   114  113  114 1   
   115  113  116 1   
   116  113  120 1   
   117  114  115 2   
   118  114  126 1   
   119  116  117 1   
   120  116  118 1   
   121  116  121 1   
   122  117  123 1   
   123  117  124 1   
   124  117  125 1   
   125  118  122 1   
   126  126  127 1   
   127  126  133 1   
   128  127  128 1   
   129  127  130 1   
   130  127  134 1   
   131  128  129 2   
   132  128  140 1   
   133  130  131 1   
   134  130  132 1   
   135  130  135 1   
   136  131  137 1   
   137  131  138 1   
   138  131  139 1   
   139  132  136 1   
   140  140  141 1   
   141  140  149 1   
   142  141  142 1   
   143  141  144 1   
   144  141  150 1   
   145  142  143 2   
   146  142  162 1   
   147  144  145 1   
   148  144  151 1   
   149  144  152 1   
   150  145  146 1   
   151  145  153 1   
   152  145  154 1   
   153  146  147 1   
   154  146  155 1   
   155  146  156 1   
   156  147  148 1   
   157  147  157 1   
   158  147  158 1   
   159  148  159 1   
   160  148  160 1   
   161  148  161 1   
   162  162  163 1   
   163  162  171 1   
   164  163  164 1   
   165  163  166 1   
   166  163  172 1   
   167  164  165 2   
   168  164  177 1   
   169  166  167 1   
   170  166  173 1   
   171  166  174 1   
   172  167  168 1   
   173  167  175 1   
   174  167  176 1   
   175  168  169 1   
   176  168  170 1   
   177  177  178 1   
   178  177  182 1   
   179  178  179 1   
   180  178  180 1   
   181  178  181 1   
   182  184  185 1   
   183  184  186 1   
   184  187  188 1   
   185  187  189 1   
   186  190  191 1   
   187  190  192 1   
@<TRIPOS>SUBSTRUCTURE
     1 MOL         1 TEMP              0 ****  ****    0 ROOT
