@<TRIPOS>MOLECULE
MOL
  192   187     1     0     0
SMALL
resp


@<TRIPOS>ATOM
      1 C1          9.4890    1.2250    1.4080 c3        1 MOL     -0.495379
      2 C2          8.3490    0.4500    0.7330 c         1 MOL      0.771265
      3 O1          7.3530    0.1620    1.3280 o         1 MOL     -0.652260
      4 H1         10.1790    0.5220    1.8750 hc        1 MOL      0.126439
      5 H2         10.0210    1.8130    0.6610 hc        1 MOL      0.126439
      6 H3          9.0780    1.8890    2.1690 hc        1 MOL      0.126439
      7 N1          8.5590    0.1180   -0.5660 n         1 MOL     -0.555248
      8 C3          7.4400   -0.4610   -1.3670 c3        1 MOL      0.019240
      9 C4          7.0560   -1.9480   -1.1120 c         1 MOL      0.612774
     10 O2          6.9670   -2.8020   -1.9860 o         1 MOL     -0.445331
     11 C5          7.6170   -0.1330   -2.8790 c3        1 MOL     -0.231736
     12 C6          8.9350   -0.5670   -3.5840 c         1 MOL      0.689162
     13 O3          8.9170   -1.0070   -4.7500 o         1 MOL     -0.611551
     14 O4         10.0210   -0.5280   -3.0340 o         1 MOL     -0.611551
     15 H4          9.3710    0.3820   -1.1080 hn        1 MOL      0.269737
     16 H5          6.5240    0.0670   -1.1040 h1        1 MOL      0.127759
     17 H6          7.4650    0.9410   -2.9900 hc        1 MOL      0.065542
     18 H7          6.6510   -0.4780   -3.2630 hc        1 MOL      0.065542
     19 N2          7.1460   -2.3520    0.1530 n         1 MOL     -0.530853
     20 C7          6.3880   -3.5530    0.6260 c3        1 MOL      0.081516
     21 C8          4.9710   -3.7240    0.0160 c         1 MOL      0.451109
     22 O5          4.6670   -4.8060   -0.5040 o         1 MOL     -0.531196
     23 C9          6.4050   -3.5910    2.1960 c3        1 MOL     -0.071260
     24 C10         7.9110   -3.6960    2.7120 c3        1 MOL      0.033078
     25 C11         7.8970   -3.4000    4.2110 c3        1 MOL      0.001992
     26 C12         9.3120   -3.6480    4.7680 c3        1 MOL      0.112496
     27 N3          9.3990   -3.5210    6.2610 n4        1 MOL     -0.316914
     28 H8          7.2400   -1.6100    0.8240 hn        1 MOL      0.311217
     29 H9          6.8140   -4.5050    0.3080 h1        1 MOL      0.060260
     30 H10         5.8850   -4.4740    2.5600 hc        1 MOL      0.045549
     31 H11         5.8440   -2.7440    2.5990 hc        1 MOL      0.045549
     32 H12         8.5620   -2.9850    2.2010 hc        1 MOL      0.015099
     33 H13         8.3130   -4.6950    2.5680 hc        1 MOL      0.015099
     34 H14         7.1190   -4.0480    4.6090 hc        1 MOL      0.007302
     35 H15         7.6280   -2.3490    4.3650 hc        1 MOL      0.007302
     36 H16        10.0260   -2.9690    4.3060 hx        1 MOL      0.048929
     37 H17         9.5910   -4.6290    4.3830 hx        1 MOL      0.048929
     38 H18        10.3290   -3.6960    6.6080 hn        1 MOL      0.246288
     39 H19         9.0590   -2.6060    6.5220 hn        1 MOL      0.246288
     40 H20         8.9480   -4.3170    6.7010 hn        1 MOL      0.246288
     41 N4          4.0200   -2.7960    0.0480 n         1 MOL     -0.445191
     42 C13         3.9440   -1.4440    0.7070 c3        1 MOL     -0.011374
     43 C14         3.9680   -0.2400   -0.2800 c         1 MOL     -0.065610
     44 O6          3.8410   -0.4080   -1.5000 o         1 MOL     -0.254639
     45 C15         2.7740   -1.4200    1.6880 c3        1 MOL      0.027009
     46 C16         1.4170   -1.7080    1.0160 c         1 MOL      0.603186
     47 O7          1.2450   -1.1320   -0.0800 o         1 MOL     -0.640266
     48 O8          0.5370   -2.3360    1.6260 o         1 MOL     -0.640266
     49 H21         3.1380   -3.0580   -0.3740 hn        1 MOL      0.374393
     50 H22         4.8090   -1.3310    1.3490 h1        1 MOL      0.102604
     51 H23         2.7350   -0.4180    2.1060 hc        1 MOL     -0.011785
     52 H24         2.9020   -2.0960    2.5310 hc        1 MOL     -0.011785
     53 N5          4.2720    0.9130    0.2280 n         1 MOL     -0.092353
     54 C17         4.3900    2.1480   -0.5160 c3        1 MOL     -0.240853
     55 C18         3.0360    2.6580   -1.0960 c         1 MOL      0.766789
     56 O9          1.9730    2.0080   -0.9510 o         1 MOL     -0.578362
     57 H25         4.4310    1.0120    1.2190 hn        1 MOL      0.259864
     58 H26         5.2440    2.0980   -1.1910 h1        1 MOL      0.090134
     59 H27         4.5960    2.9190    0.2290 h1        1 MOL      0.090134
     60 N6          3.0380    3.8710   -1.6030 n         1 MOL     -0.576217
     61 C19         1.8580    4.5290   -2.1100 c3        1 MOL      0.125193
     62 C20         2.0080    6.0570   -1.9700 c         1 MOL      0.487524
     63 O10         3.0700    6.4890   -1.4810 o         1 MOL     -0.521906
     64 C21         1.7960    4.1140   -3.6220 c3        1 MOL     -0.076346
     65 C22         1.3130    2.6840   -3.7990 c         1 MOL      0.531862
     66 O11         0.2790    2.3710   -3.0860 o         1 MOL     -0.616905
     67 O12         1.8370    1.9360   -4.6230 o         1 MOL     -0.616905
     68 H28         3.8600    4.4530   -1.6420 hn        1 MOL      0.319935
     69 H29         0.9410    4.1970   -1.6220 h1        1 MOL      0.086785
     70 H30         2.7710    4.2560   -4.0890 hc        1 MOL      0.029563
     71 H31         1.1720    4.8770   -4.0800 hc        1 MOL      0.029563
     72 N7          0.9290    6.8780   -2.2910 n         1 MOL     -0.524842
     73 C23        -0.4840    6.5240   -2.5770 c3        1 MOL      0.103076
     74 C24        -1.3140    6.2190   -1.3220 c         1 MOL      0.652468
     75 O13        -1.1550    6.9190   -0.3410 o         1 MOL     -0.562968
     76 H32         1.2740    7.8180   -2.3860 hn        1 MOL      0.318790
     77 H33        -0.5120    5.7460   -3.3410 h1        1 MOL      0.030279
     78 H34        -1.0300    7.3480   -3.0380 h1        1 MOL      0.030279
     79 N8         -2.1580    5.2620   -1.4130 n         1 MOL     -0.556885
     80 C25        -2.8400    4.6260   -0.3410 c3        1 MOL     -0.081951
     81 C26        -1.8090    3.7190    0.3300 c         1 MOL      0.769878
     82 O14        -1.0540    3.0780   -0.3790 o         1 MOL     -0.705297
     83 C27        -3.9470    3.7420   -0.8000 c3        1 MOL      0.626662
     84 C28        -5.0110    4.5330   -1.5690 c3        1 MOL     -0.332478
     85 O15        -4.6080    3.0880    0.2360 oh        1 MOL     -0.784273
     86 H35        -2.2800    4.9210   -2.3640 hn        1 MOL      0.247938
     87 H36        -3.2780    5.3200    0.3830 h1        1 MOL      0.055110
     88 H37        -3.5880    2.9750   -1.4790 h1        1 MOL      0.028306
     89 H38        -5.2570    3.7050    0.6070 ho        1 MOL      0.393978
     90 H39        -5.6380    5.0650   -0.8480 hc        1 MOL      0.079583
     91 H40        -4.4990    5.2290   -2.2240 hc        1 MOL      0.079583
     92 H41        -5.6380    3.8710   -2.1670 hc        1 MOL      0.079583
     93 N9         -1.7320    3.7410    1.6770 n         1 MOL     -0.478107
     94 C29        -0.9790    2.8530    2.5070 c3        1 MOL      0.023931
     95 C30        -1.2630    1.4100    2.2490 c         1 MOL      0.564379
     96 O16        -0.5980    0.7430    1.4160 o         1 MOL     -0.552772
     97 C31         0.5940    3.2330    2.5000 c3        1 MOL      0.284570
     98 C32         0.8080    4.7010    2.6450 c3        1 MOL     -0.005128
     99 C33         1.4440    2.3420    3.4300 c3        1 MOL     -0.509036
    100 C34         0.5030    5.2770    4.0310 c3        1 MOL     -0.189028
    101 H42        -2.2930    4.4240    2.1720 hn        1 MOL      0.259451
    102 H43        -1.3170    3.1160    3.5110 h1        1 MOL      0.049848
    103 H44         0.9170    2.9910    1.4820 hc        1 MOL     -0.072374
    104 H45         0.3570    5.2030    1.7890 hc        1 MOL      0.030719
    105 H46         1.8840    4.8000    2.4970 hc        1 MOL      0.030719
    106 H47         1.0300    1.3330    3.4930 hc        1 MOL      0.128906
    107 H48         2.4560    2.2810    3.0330 hc        1 MOL      0.128906
    108 H49         1.4520    2.6670    4.4640 hc        1 MOL      0.128906
    109 H50         1.1530    4.8120    4.7790 hc        1 MOL      0.039451
    110 H51         0.5970    6.3610    3.9880 hc        1 MOL      0.039451
    111 H52        -0.5020    4.9630    4.2990 hc        1 MOL      0.039451
    112 N10        -2.2100    0.8950    2.9970 n         1 MOL     -0.387992
    113 C35        -2.6950   -0.4990    2.9210 c3        1 MOL     -0.094878
    114 C36        -4.2780   -0.6490    2.9450 c         1 MOL      0.401160
    115 O17        -4.8360   -1.7080    3.2020 o         1 MOL     -0.516710
    116 C37        -2.0110   -1.3610    4.0690 c3        1 MOL      0.433749
    117 C38        -2.1910   -0.6930    5.4620 c3        1 MOL     -0.255385
    118 O18        -0.6210   -1.3860    3.8640 oh        1 MOL     -0.610949
    119 H53        -2.5900    1.3960    3.7980 hn        1 MOL      0.242903
    120 H54        -2.3280   -0.8930    1.9680 h1        1 MOL      0.081511
    121 H55        -2.4330   -2.3520    4.1820 h1        1 MOL      0.004048
    122 H56        -0.3980   -1.6850    2.9840 ho        1 MOL      0.355157
    123 H57        -2.1020   -1.4950    6.2000 hc        1 MOL      0.057389
    124 H58        -1.4670    0.0990    5.6350 hc        1 MOL      0.057389
    125 H59        -3.2290   -0.4320    5.6120 hc        1 MOL      0.057389
    126 N11        -4.9780    0.4490    2.5860 n         1 MOL     -0.092922
    127 C39        -6.4760    0.4750    2.5060 c3        1 MOL     -0.103268
    128 C40        -6.8420   -0.1600    1.1280 c         1 MOL      0.404189
    129 O19        -7.2650    0.5260    0.1810 o         1 MOL     -0.488013
    130 C41        -6.8760    1.9370    2.6060 c3        1 MOL      0.367880
    131 C42        -8.4120    2.0400    2.5790 c3        1 MOL     -0.442914
    132 O20        -6.5130    2.4280    3.8440 oh        1 MOL     -0.642099
    133 H60        -4.4210    1.2980    2.5610 hn        1 MOL      0.163438
    134 H61        -6.9100    0.0010    3.3850 h1        1 MOL      0.113640
    135 H62        -6.4380    2.5380    1.8110 h1        1 MOL      0.021011
    136 H63        -7.1250    3.1560    3.9860 ho        1 MOL      0.397242
    137 H64        -8.7100    3.0680    2.8030 hc        1 MOL      0.114011
    138 H65        -8.7830    1.9600    1.5570 hc        1 MOL      0.114011
    139 H66        -8.8580    1.2570    3.1960 hc        1 MOL      0.114011
    140 N12        -6.6280   -1.4970    1.0870 n         1 MOL     -0.340577
    141 C43        -6.4440   -2.3770   -0.0390 c3        1 MOL      0.119958
    142 C44        -5.1580   -2.2960   -0.8500 c         1 MOL      0.395460
    143 O21        -4.7490   -1.1780   -1.1410 o         1 MOL     -0.448823
    144 C45        -7.6250   -2.3010   -0.9680 c3        1 MOL     -0.056609
    145 C46        -8.8750   -3.0970   -0.5060 c3        1 MOL      0.083943
    146 C47        -9.9760   -2.9530   -1.5930 c3        1 MOL     -0.026572
    147 C48       -11.1800   -3.8720   -1.2770 c3        1 MOL      0.017980
    148 N13       -12.0390   -3.2670   -0.2310 n4        1 MOL     -0.259127
    149 H67        -6.4920   -1.7980    2.0460 hn        1 MOL      0.227191
    150 H68        -6.4820   -3.3880    0.3980 h1        1 MOL      0.022839
    151 H69        -7.2860   -2.8180   -1.8700 hc        1 MOL      0.031106
    152 H70        -7.8350   -1.3060   -1.3450 hc        1 MOL      0.031106
    153 H71        -9.2000   -2.6610    0.4350 hc        1 MOL     -0.021876
    154 H72        -8.5260   -4.1280   -0.4180 hc        1 MOL     -0.021876
    155 H73        -9.5050   -3.2670   -2.5190 hc        1 MOL      0.049630
    156 H74       -10.2640   -1.9070   -1.5590 hc        1 MOL      0.049630
    157 H75       -10.8240   -4.8080   -0.8310 hx        1 MOL      0.078333
    158 H76       -11.7500   -4.0490   -2.1930 hx        1 MOL      0.078333
    159 H77       -12.7780   -3.9260   -0.0100 hn        1 MOL      0.244145
    160 H78       -11.5470   -3.0170    0.6090 hn        1 MOL      0.244145
    161 H79       -12.5170   -2.4390   -0.5360 hn        1 MOL      0.244145
    162 N14        -4.5240   -3.4020   -1.2630 n         1 MOL     -0.345610
    163 C49        -3.1970   -3.3850   -1.9770 c3        1 MOL      0.125123
    164 C50        -2.1230   -2.8260   -0.9660 c         1 MOL      0.390310
    165 O22        -1.4070   -1.9210   -1.3110 o         1 MOL     -0.531948
    166 C51        -2.7490   -4.8330   -2.3870 c3        1 MOL     -0.111015
    167 C52        -3.0980   -5.0660   -3.8110 c3        1 MOL     -0.203878
    168 C53        -3.0330   -6.5730   -4.1310 c         1 MOL      0.645969
    169 O23        -2.0340   -6.9930   -4.7770 o         1 MOL     -0.627131
    170 O24        -3.9160   -7.3440   -3.6760 o         1 MOL     -0.627131
    171 H80        -5.0660   -4.2500   -1.2520 hn        1 MOL      0.273363
    172 H81        -3.1470   -2.7360   -2.8540 h1        1 MOL      0.048694
    173 H82        -3.2450   -5.5960   -1.7910 hc        1 MOL      0.103269
    174 H83        -1.6730   -4.9630   -2.3330 hc        1 MOL      0.103269
    175 H84        -2.4850   -4.4880   -4.4980 hc        1 MOL      0.035925
    176 H85        -4.1190   -4.7040   -3.8970 hc        1 MOL      0.035925
    177 N15        -2.0400   -3.2700    0.3050 n         1 MOL     -0.303130
    178 C54        -2.5090   -4.5290    0.8160 c3        1 MOL      0.100187
    179 H86        -3.0090   -4.3690    1.7710 h1        1 MOL     -0.013564
    180 H87        -3.2100   -4.9710    0.1080 h1        1 MOL     -0.013564
    181 H88        -1.6620   -5.2020    0.9580 h1        1 MOL     -0.013564
    182 H89        -1.2900   -2.8750    0.8580 hn        1 MOL      0.322108
    183 Ca1        -0.1840    0.5640   -1.2610 Ca        1 MOL      1.876953
    184 O25        -3.2580    0.7420   -0.2120 oh        1 MOL     -0.976076
    185 H90        -3.7190   -0.0530   -0.4740 ho        1 MOL      0.444334
    186 H91        -3.9530    1.4010   -0.1450 ho        1 MOL      0.444334
    187 O26        -2.1780    0.5030   -2.9380 oh        1 MOL     -0.976076
    188 H92        -2.8000    1.1030   -3.3320 ho        1 MOL      0.444334
    189 H93        -2.2520   -0.3070   -3.4490 ho        1 MOL      0.444334
    190 O27         1.0640   -0.5360   -3.2420 oh        1 MOL     -0.976076
    191 H94         1.3390   -0.0100   -3.9940 ho        1 MOL      0.444334
    192 H95         0.8890   -1.4020   -3.6300 ho        1 MOL      0.444334
@<TRIPOS>BOND
     1    1    2 1   
     2    1    4 1   
     3    1    5 1   
     4    1    6 1   
     5    2    3 2   
     6    2    7 1   
     7    7    8 1   
     8    7   15 1   
     9    8    9 1   
    10    8   11 1   
    11    8   16 1   
    12    9   10 2   
    13    9   19 1   
    14   11   12 1   
    15   11   17 1   
    16   11   18 1   
    17   12   13 1   
    18   12   14 1   
    19   19   20 1   
    20   19   28 1   
    21   20   21 1   
    22   20   23 1   
    23   20   29 1   
    24   21   22 2   
    25   21   41 1   
    26   23   24 1   
    27   23   30 1   
    28   23   31 1   
    29   24   25 1   
    30   24   32 1   
    31   24   33 1   
    32   25   26 1   
    33   25   34 1   
    34   25   35 1   
    35   26   27 1   
    36   26   36 1   
    37   26   37 1   
    38   27   38 1   
    39   27   39 1   
    40   27   40 1   
    41   41   42 1   
    42   41   49 1   
    43   42   43 1   
    44   42   45 1   
    45   42   50 1   
    46   43   44 2   
    47   43   53 1   
    48   45   46 1   
    49   45   51 1   
    50   45   52 1   
    51   46   47 1   
    52   46   48 1   
    53   53   54 1   
    54   53   57 1   
    55   54   55 1   
    56   54   58 1   
    57   54   59 1   
    58   55   56 2   
    59   55   60 1   
    60   60   61 1   
    61   60   68 1   
    62   61   62 1   
    63   61   64 1   
    64   61   69 1   
    65   62   63 2   
    66   62   72 1   
    67   64   65 1   
    68   64   70 1   
    69   64   71 1   
    70   65   66 1   
    71   65   67 1   
    72   72   73 1   
    73   72   76 1   
    74   73   74 1   
    75   73   77 1   
    76   73   78 1   
    77   74   75 2   
    78   74   79 1   
    79   79   80 1   
    80   79   86 1   
    81   80   81 1   
    82   80   83 1   
    83   80   87 1   
    84   81   82 2   
    85   81   93 1   
    86   83   84 1   
    87   83   85 1   
    88   83   88 1   
    89   84   90 1   
    90   84   91 1   
    91   84   92 1   
    92   85   89 1   
    93   93   94 1   
    94   93  101 1   
    95   94   95 1   
    96   94   97 1   
    97   94  102 1   
    98   95   96 2   
    99   95  112 1   
   100   97   98 1   
   101   97   99 1   
   102   97  103 1   
   103   98  100 1   
   104   98  104 1   
   105   98  105 1   
   106   99  106 1   
   107   99  107 1   
   108   99  108 1   
   109  100  109 1   
   110  100  110 1   
   111  100  111 1   
   112  112  113 1   
   113  112  119 1   
   114  113  114 1   
   115  113  116 1   
   116  113  120 1   
   117  114  115 2   
   118  114  126 1   
   119  116  117 1   
   120  116  118 1   
   121  116  121 1   
   122  117  123 1   
   123  117  124 1   
   124  117  125 1   
   125  118  122 1   
   126  126  127 1   
   127  126  133 1   
   128  127  128 1   
   129  127  130 1   
   130  127  134 1   
   131  128  129 2   
   132  128  140 1   
   133  130  131 1   
   134  130  132 1   
   135  130  135 1   
   136  131  137 1   
   137  131  138 1   
   138  131  139 1   
   139  132  136 1   
   140  140  141 1   
   141  140  149 1   
   142  141  142 1   
   143  141  144 1   
   144  141  150 1   
   145  142  143 2   
   146  142  162 1   
   147  144  145 1   
   148  144  151 1   
   149  144  152 1   
   150  145  146 1   
   151  145  153 1   
   152  145  154 1   
   153  146  147 1   
   154  146  155 1   
   155  146  156 1   
   156  147  148 1   
   157  147  157 1   
   158  147  158 1   
   159  148  159 1   
   160  148  160 1   
   161  148  161 1   
   162  162  163 1   
   163  162  171 1   
   164  163  164 1   
   165  163  166 1   
   166  163  172 1   
   167  164  165 2   
   168  164  177 1   
   169  166  167 1   
   170  166  173 1   
   171  166  174 1   
   172  167  168 1   
   173  167  175 1   
   174  167  176 1   
   175  168  169 1   
   176  168  170 1   
   177  177  178 1   
   178  177  182 1   
   179  178  179 1   
   180  178  180 1   
   181  178  181 1   
   182  184  185 1   
   183  184  186 1   
   184  187  188 1   
   185  187  189 1   
   186  190  191 1   
   187  190  192 1   
@<TRIPOS>SUBSTRUCTURE
     1 MOL         1 TEMP              0 ****  ****    0 ROOT
