@<TRIPOS>MOLECULE
MOL
  189   185     1     0     0
SMALL
resp


@<TRIPOS>ATOM
      1 C1          4.7090    5.2410   -3.0280 c3        1 MOL     -0.471754
      2 C2          5.2590    4.0520   -2.0980 c         1 MOL      0.684272
      3 O1          4.5510    3.6660   -1.1670 o         1 MOL     -0.514238
      4 H1          4.0430    4.8300   -3.7880 hc        1 MOL      0.123745
      5 H2          4.1610    5.9580   -2.4160 hc        1 MOL      0.123745
      6 H3          5.5470    5.7420   -3.5130 hc        1 MOL      0.123745
      7 N1          6.4780    3.5510   -2.3350 n         1 MOL     -0.556208
      8 C3          7.2060    2.4350   -1.7220 c3        1 MOL      0.298325
      9 C4          6.3320    1.1570   -1.4880 c         1 MOL      0.281975
     10 O2          5.8750    0.9210   -0.3720 o         1 MOL     -0.471911
     11 C5          8.0250    2.8820   -0.4470 c3        1 MOL     -0.283537
     12 C6          7.3140    3.8160    0.5380 c         1 MOL      0.732098
     13 O3          6.2970    3.3690    1.0550 o         1 MOL     -0.714103
     14 O4          7.6790    4.9670    0.8370 o         1 MOL     -0.714103
     15 H4          6.8720    3.8520   -3.2130 hn        1 MOL      0.283541
     16 H5          7.9440    2.2340   -2.5090 h1        1 MOL      0.022661
     17 H6          9.0080    3.2760   -0.7270 hc        1 MOL      0.051245
     18 H7          8.2610    1.9810    0.1150 hc        1 MOL      0.051245
     19 N2          5.9800    0.4980   -2.5800 n         1 MOL     -0.566171
     20 C7          5.1060   -0.7000   -2.7380 c3        1 MOL      0.409344
     21 C8          5.7670   -1.8830   -2.0460 c         1 MOL      0.245182
     22 O5          6.0790   -2.9060   -2.7670 o         1 MOL     -0.575623
     23 C9          3.6110   -0.3750   -2.4090 c3        1 MOL      0.013029
     24 C10         2.7050   -1.6520   -2.6230 c3        1 MOL      0.065084
     25 C11         3.0370    0.8640   -3.1540 c3        1 MOL     -0.237272
     26 C12         2.6780   -2.2100   -4.0620 c3        1 MOL     -0.486612
     27 H8          6.4810    0.7810   -3.4160 hn        1 MOL      0.291623
     28 H9          5.0510   -1.0190   -3.7850 h1        1 MOL     -0.005196
     29 H10         3.5600   -0.2120   -1.3280 hc        1 MOL     -0.141292
     30 H11         1.6900   -1.3080   -2.4700 hc        1 MOL      0.101854
     31 H12         2.8100   -2.4380   -1.8740 hc        1 MOL      0.101854
     32 H13         3.2320    1.7300   -2.5080 hc        1 MOL      0.050534
     33 H14         3.4470    0.9820   -4.1580 hc        1 MOL      0.050534
     34 H15         1.9560    0.8750   -3.2250 hc        1 MOL      0.050534
     35 H16         1.8410   -2.9120   -4.1060 hc        1 MOL      0.109746
     36 H17         2.3680   -1.4340   -4.7650 hc        1 MOL      0.109746
     37 H18         3.6390   -2.6280   -4.3490 hc        1 MOL      0.109746
     38 N3          6.2490   -1.7770   -0.8150 n         1 MOL      0.073848
     39 C13         7.2690   -2.6560   -0.3050 c3        1 MOL      0.022377
     40 C14         6.9720   -4.1780   -0.1700 c         1 MOL      0.515510
     41 O6          7.8080   -5.0790   -0.3260 o         1 MOL     -0.517861
     42 C15         7.8110   -2.0420    1.0130 c3        1 MOL     -0.317919
     43 C16         9.1000   -2.7210    1.3720 c         1 MOL      0.739136
     44 O7          9.1260   -3.3860    2.4190 o         1 MOL     -0.733107
     45 O8         10.0390   -2.5340    0.5970 o         1 MOL     -0.733107
     46 H19         5.9460   -0.9650   -0.2920 hn        1 MOL      0.136212
     47 H20         8.1260   -2.5970   -0.9900 h1        1 MOL      0.028471
     48 H21         7.0250   -2.1900    1.7460 hc        1 MOL      0.104226
     49 H22         7.9690   -0.9590    0.9290 hc        1 MOL      0.104226
     50 N4          5.7470   -4.5690    0.2820 n         1 MOL     -0.519161
     51 C17         4.6640   -3.6540    0.7480 c3        1 MOL      0.329588
     52 C18         3.5700   -4.3880    1.5330 c         1 MOL      0.508587
     53 O9          3.4920   -5.6200    1.4640 o         1 MOL     -0.570171
     54 H23         5.5890   -5.5690    0.3070 hn        1 MOL      0.282451
     55 H24         4.1730   -3.1880   -0.1040 h1        1 MOL     -0.068769
     56 H25         5.1180   -2.8550    1.3390 h1        1 MOL     -0.068769
     57 N5          2.6720   -3.7300    2.2800 n         1 MOL     -0.523221
     58 C19         2.6380   -2.2780    2.6600 c3        1 MOL      0.195952
     59 C20         2.5200   -1.2330    1.5410 c         1 MOL      0.096459
     60 O10         3.4550   -0.5290    1.2240 o         1 MOL     -0.426180
     61 C21         3.6630   -2.0870    3.8050 c3        1 MOL     -0.265560
     62 C22         3.4630   -0.7820    4.5690 c         1 MOL      0.822610
     63 O11         4.5160   -0.3580    5.1120 o         1 MOL     -0.727175
     64 O12         2.3560   -0.2340    4.7660 o         1 MOL     -0.727175
     65 H26         2.0210   -4.3130    2.7810 hn        1 MOL      0.300132
     66 H27         1.6720   -2.2610    3.1500 h1        1 MOL      0.027900
     67 H28         4.6840   -2.2710    3.4800 hc        1 MOL      0.077940
     68 H29         3.4310   -2.8080    4.5890 hc        1 MOL      0.077940
     69 N6          1.3820   -1.1800    0.8220 n         1 MOL     -0.008651
     70 C23         0.0870   -1.7180    1.1420 c3        1 MOL     -0.300993
     71 C24        -0.3750   -2.6620    0.0480 c         1 MOL      0.626181
     72 O13         0.2990   -2.9330   -0.9830 o         1 MOL     -0.531840
     73 H30         1.4240   -0.6720   -0.0520 hn        1 MOL      0.231504
     74 H31        -0.6360   -0.9080    1.2010 h1        1 MOL      0.104862
     75 H32         0.1750   -2.3710    2.0060 h1        1 MOL      0.104862
     76 N7         -1.5480   -3.2240    0.3540 n         1 MOL     -0.505352
     77 C25        -2.0330   -4.4190   -0.3480 c3        1 MOL     -0.030013
     78 C26        -2.5090   -4.0940   -1.7710 c         1 MOL      0.291859
     79 O14        -2.6380   -5.0200   -2.5630 o         1 MOL     -0.491983
     80 C27        -3.1680   -5.0400    0.5360 c3        1 MOL      0.282240
     81 C28        -2.7000   -5.3190    2.0150 c3        1 MOL     -0.338717
     82 C29        -3.8780   -5.5730    2.9270 c         1 MOL      0.710202
     83 N8         -3.8260   -5.1440    4.1670 n         1 MOL     -0.780499
     84 O15        -4.8250   -6.2400    2.5320 o         1 MOL     -0.579362
     85 H33        -2.0450   -2.9050    1.1720 hn        1 MOL      0.296153
     86 H34        -1.2070   -5.1270   -0.3900 h1        1 MOL      0.134555
     87 H35        -3.4110   -5.9980    0.0770 hc        1 MOL     -0.004043
     88 H36        -4.0110   -4.3560    0.6240 hc        1 MOL     -0.004043
     89 H37        -2.2770   -4.4250    2.4740 hc        1 MOL      0.073359
     90 H38        -1.9980   -6.1400    2.1390 hc        1 MOL      0.073359
     91 H39        -3.0020   -4.6480    4.4970 hn        1 MOL      0.356391
     92 H40        -4.4770   -5.4660    4.8670 hn        1 MOL      0.356391
     93 N9         -2.7640   -2.8220   -2.1470 n         1 MOL     -0.029092
     94 C30        -3.2210   -2.4090   -3.4880 c3        1 MOL     -0.071576
     95 C31        -4.6230   -1.7320   -3.5040 c         1 MOL      0.672075
     96 O16        -5.1560   -1.4460   -4.5800 o         1 MOL     -0.552618
     97 C32        -2.1160   -1.6050   -4.2530 c3        1 MOL      0.314312
     98 C33        -0.8210   -2.4430   -4.3180 c3        1 MOL     -0.284531
     99 C34        -1.7220   -0.3270   -3.6780 c3        1 MOL     -0.284531
    100 H41        -2.5670   -2.0650   -1.5160 hn        1 MOL      0.133228
    101 H42        -3.2960   -3.2700   -4.1470 h1        1 MOL      0.057737
    102 H43        -2.6530   -1.5270   -5.2010 hc        1 MOL     -0.048661
    103 H44        -0.1090   -1.9800   -4.9970 hc        1 MOL      0.056114
    104 H45        -0.3460   -2.6940   -3.3700 hc        1 MOL      0.056114
    105 H46        -1.0510   -3.3560   -4.8730 hc        1 MOL      0.056114
    106 H47        -2.7030    0.1560   -3.6740 hc        1 MOL      0.056114
    107 H48        -1.2930   -0.4520   -2.6810 hc        1 MOL      0.056114
    108 H49        -1.0660    0.1570   -4.4030 hc        1 MOL      0.056114
    109 N10        -5.1630   -1.5440   -2.3060 n         1 MOL     -0.706567
    110 C35        -6.5990   -1.3490   -2.1240 c3        1 MOL      0.299828
    111 C36        -7.0510   -0.0040   -1.5480 c         1 MOL      0.538846
    112 O17        -8.1680    0.4660   -1.7770 o         1 MOL     -0.583400
    113 C37        -7.3000   -2.5020   -1.2790 c3        1 MOL     -0.428302
    114 C38        -6.9470   -3.9080   -1.7360 c         1 MOL      0.702268
    115 N11        -7.4540   -4.4100   -2.8720 n         1 MOL     -0.826200
    116 O18        -6.0930   -4.5580   -1.1080 o         1 MOL     -0.564406
    117 H50        -4.6470   -1.6790   -1.4480 hn        1 MOL      0.299619
    118 H51        -6.9940   -1.3620   -3.1370 h1        1 MOL      0.018716
    119 H52        -8.3760   -2.3090   -1.3750 hc        1 MOL      0.151860
    120 H53        -6.9020   -2.3880   -0.2740 hc        1 MOL      0.151860
    121 H54        -7.9630   -3.9310   -3.6040 hn        1 MOL      0.373771
    122 H55        -7.2630   -5.3740   -3.0790 hn        1 MOL      0.373771
    123 N12        -6.2050    0.6330   -0.8130 n         1 MOL     -0.445904
    124 C39        -6.3570    2.0280   -0.1940 c3        1 MOL      0.223866
    125 C40        -4.9260    2.5880    0.1240 c         1 MOL      0.352231
    126 O19        -3.9070    1.9230   -0.0010 o         1 MOL     -0.473131
    127 C41        -7.0120    1.8620    1.1570 c3        1 MOL     -0.156121
    128 C42        -8.2460    0.9910    1.1870 ca        1 MOL      0.047693
    129 C43        -8.0370   -0.3370    1.6450 ca        1 MOL     -0.189915
    130 C44        -9.5480    1.5700    1.0240 ca        1 MOL     -0.189915
    131 C45        -9.2140   -1.1480    1.8900 ca        1 MOL     -0.194091
    132 C46       -10.6840    0.6500    1.2840 ca        1 MOL     -0.194091
    133 C47       -10.5100   -0.6450    1.6610 ca        1 MOL      0.266421
    134 O20       -11.5900   -1.5560    1.7910 oh        1 MOL     -0.487771
    135 H56        -5.3880    0.1000   -0.5550 hn        1 MOL      0.239326
    136 H57        -6.8130    2.6990   -0.9220 h1        1 MOL      0.048767
    137 H58        -7.2970    2.8450    1.5160 hc        1 MOL      0.114326
    138 H59        -6.2750    1.5130    1.8720 hc        1 MOL      0.114326
    139 H60        -7.0410   -0.6810    1.8720 ha        1 MOL      0.146246
    140 H61        -9.6360    2.5940    0.7170 ha        1 MOL      0.146246
    141 H62        -9.1560   -2.1570    2.2800 ha        1 MOL      0.123662
    142 H63       -11.7140    0.9740    1.2320 ha        1 MOL      0.123662
    143 H64       -12.4190   -1.1160    1.5840 ho        1 MOL      0.341625
    144 N13        -4.8830    3.7530    0.6900 n         1 MOL     -0.474182
    145 C48        -3.8470    4.5850    1.2860 c3        1 MOL      0.407067
    146 C49        -2.6590    4.9240    0.4680 c         1 MOL      0.133359
    147 O21        -2.0000    5.9270    0.7500 o         1 MOL     -0.513492
    148 C50        -3.4000    4.1160    2.7310 c3        1 MOL     -0.091133
    149 C51        -4.5790    4.3230    3.6520 c3        1 MOL     -0.076710
    150 C52        -4.2110    3.9170    5.0080 c         1 MOL      0.711496
    151 O22        -4.2160    4.7920    5.9080 o         1 MOL     -0.735407
    152 O23        -4.0220    2.7320    5.1980 o         1 MOL     -0.735407
    153 H65        -5.8220    4.0790    0.8520 hn        1 MOL      0.232509
    154 H66        -4.2490    5.5940    1.4190 h1        1 MOL      0.007018
    155 H67        -2.6400    4.7650    3.1580 hc        1 MOL      0.079741
    156 H68        -3.1280    3.0530    2.7570 hc        1 MOL      0.079741
    157 H69        -5.3880    3.7220    3.2410 hc        1 MOL     -0.056341
    158 H70        -4.7520    5.3970    3.6820 hc        1 MOL     -0.056341
    159 N14        -2.1710    4.1180   -0.4400 n         1 MOL     -0.162274
    160 C53        -1.1260    4.4290   -1.4060 c3        1 MOL     -0.072176
    161 C54        -1.5730    5.4790   -2.4750 c         1 MOL      0.421360
    162 O24        -0.7210    5.8040   -3.2720 o         1 MOL     -0.522663
    163 C55        -0.5560    3.1450   -2.1060 c3        1 MOL     -0.051466
    164 C56        -0.1500    2.0350   -1.0810 c3        1 MOL      0.319768
    165 C57         0.9650    2.4050   -0.2140 c         1 MOL      0.410695
    166 O25         1.9970    1.7160   -0.2610 o         1 MOL     -0.606309
    167 O26         0.6760    3.0950    0.7470 o         1 MOL     -0.606309
    168 H71        -2.6180    3.2270   -0.6110 hn        1 MOL      0.171180
    169 H72        -0.3400    4.9310   -0.8360 h1        1 MOL      0.170873
    170 H73         0.3020    3.2820   -2.7670 hc        1 MOL     -0.004242
    171 H74        -1.4010    2.6970   -2.6150 hc        1 MOL     -0.004242
    172 H75         0.0320    1.0980   -1.6170 hc        1 MOL     -0.071759
    173 H76        -0.9920    1.6130   -0.5290 hc        1 MOL     -0.071759
    174 N15        -2.8360    5.9150   -2.3730 n         1 MOL     -0.160424
    175 C58        -3.4380    6.9280   -3.2230 c3        1 MOL     -0.210143
    176 H77        -4.0510    6.4450   -3.9850 h1        1 MOL      0.085128
    177 H78        -4.0620    7.5860   -2.6190 h1        1 MOL      0.085128
    178 H79        -2.6540    7.5120   -3.7050 h1        1 MOL      0.085128
    179 H80        -3.4590    5.4860   -1.7070 hn        1 MOL      0.187696
    180 Ca1         4.0170    2.1810    1.1880 Ca        1 MOL      1.815830
    181 O27         5.8350    1.1930    2.8620 oh        1 MOL     -0.938707
    182 H81         5.7260    0.9120    3.7650 ho        1 MOL      0.438972
    183 H82         6.7170    1.5500    2.8170 ho        1 MOL      0.438972
    184 O28         2.1870    1.7750    3.2010 oh        1 MOL     -0.938707
    185 H83         2.0630    0.9910    3.7240 ho        1 MOL      0.438972
    186 H84         1.3590    2.2400    3.2650 ho        1 MOL      0.438972
    187 O29         3.6720    4.8900    1.4360 oh        1 MOL     -0.938707
    188 H85         4.1700    5.4820    1.9970 ho        1 MOL      0.438972
    189 H86         3.1620    5.4700    0.8750 ho        1 MOL      0.438972
@<TRIPOS>BOND
     1    1    2 1   
     2    1    4 1   
     3    1    5 1   
     4    1    6 1   
     5    2    3 2   
     6    2    7 1   
     7    7    8 1   
     8    7   15 1   
     9    8    9 1   
    10    8   11 1   
    11    8   16 1   
    12    9   10 2   
    13    9   19 1   
    14   11   12 1   
    15   11   17 1   
    16   11   18 1   
    17   12   13 1   
    18   12   14 1   
    19   19   20 1   
    20   19   27 1   
    21   20   21 1   
    22   20   23 1   
    23   20   28 1   
    24   21   22 2   
    25   21   38 1   
    26   23   24 1   
    27   23   25 1   
    28   23   29 1   
    29   24   26 1   
    30   24   30 1   
    31   24   31 1   
    32   25   32 1   
    33   25   33 1   
    34   25   34 1   
    35   26   35 1   
    36   26   36 1   
    37   26   37 1   
    38   38   39 1   
    39   38   46 1   
    40   39   40 1   
    41   39   42 1   
    42   39   47 1   
    43   40   41 2   
    44   40   50 1   
    45   42   43 1   
    46   42   48 1   
    47   42   49 1   
    48   43   44 1   
    49   43   45 1   
    50   50   51 1   
    51   50   54 1   
    52   51   52 1   
    53   51   55 1   
    54   51   56 1   
    55   52   53 2   
    56   52   57 1   
    57   57   58 1   
    58   57   65 1   
    59   58   59 1   
    60   58   61 1   
    61   58   66 1   
    62   59   60 2   
    63   59   69 1   
    64   61   62 1   
    65   61   67 1   
    66   61   68 1   
    67   62   63 1   
    68   62   64 1   
    69   69   70 1   
    70   69   73 1   
    71   70   71 1   
    72   70   74 1   
    73   70   75 1   
    74   71   72 2   
    75   71   76 1   
    76   76   77 1   
    77   76   85 1   
    78   77   78 1   
    79   77   80 1   
    80   77   86 1   
    81   78   79 2   
    82   78   93 1   
    83   80   81 1   
    84   80   87 1   
    85   80   88 1   
    86   81   82 1   
    87   81   89 1   
    88   81   90 1   
    89   82   83 1   
    90   82   84 2   
    91   83   91 1   
    92   83   92 1   
    93   93   94 1   
    94   93  100 1   
    95   94   95 1   
    96   94   97 1   
    97   94  101 1   
    98   95   96 2   
    99   95  109 1   
   100   97   98 1   
   101   97   99 1   
   102   97  102 1   
   103   98  103 1   
   104   98  104 1   
   105   98  105 1   
   106   99  106 1   
   107   99  107 1   
   108   99  108 1   
   109  109  110 1   
   110  109  117 1   
   111  110  111 1   
   112  110  113 1   
   113  110  118 1   
   114  111  112 2   
   115  111  123 1   
   116  113  114 1   
   117  113  119 1   
   118  113  120 1   
   119  114  115 1   
   120  114  116 2   
   121  115  121 1   
   122  115  122 1   
   123  123  124 1   
   124  123  135 1   
   125  124  125 1   
   126  124  127 1   
   127  124  136 1   
   128  125  126 2   
   129  125  144 1   
   130  127  128 1   
   131  127  137 1   
   132  127  138 1   
   133  128  129 ar  
   134  128  130 ar  
   135  129  131 ar  
   136  129  139 1   
   137  130  132 ar  
   138  130  140 1   
   139  131  133 ar  
   140  131  141 1   
   141  132  133 ar  
   142  132  142 1   
   143  133  134 1   
   144  134  143 1   
   145  144  145 1   
   146  144  153 1   
   147  145  146 1   
   148  145  148 1   
   149  145  154 1   
   150  146  147 2   
   151  146  159 1   
   152  148  149 1   
   153  148  155 1   
   154  148  156 1   
   155  149  150 1   
   156  149  157 1   
   157  149  158 1   
   158  150  151 1   
   159  150  152 1   
   160  159  160 1   
   161  159  168 1   
   162  160  161 1   
   163  160  163 1   
   164  160  169 1   
   165  161  162 2   
   166  161  174 1   
   167  163  164 1   
   168  163  170 1   
   169  163  171 1   
   170  164  165 1   
   171  164  172 1   
   172  164  173 1   
   173  165  166 1   
   174  165  167 1   
   175  174  175 1   
   176  174  179 1   
   177  175  176 1   
   178  175  177 1   
   179  175  178 1   
   180  181  182 1   
   181  181  183 1   
   182  184  185 1   
   183  184  186 1   
   184  187  188 1   
   185  187  189 1   
@<TRIPOS>SUBSTRUCTURE
     1 MOL         1 TEMP              0 ****  ****    0 ROOT
