@<TRIPOS>MOLECULE
MOL
  198   191     1     0     0
SMALL
resp


@<TRIPOS>ATOM
      1 C1          5.4750    7.7620   -5.6750 c3        1 MOL     -0.425811
      2 C2          5.1070    7.1820   -4.2960 c         1 MOL      0.740021
      3 O1          5.9610    6.8420   -3.4870 o         1 MOL     -0.616323
      4 H1          6.3490    7.2420   -6.0660 hc        1 MOL      0.106214
      5 H2          4.6370    7.6310   -6.3600 hc        1 MOL      0.106214
      6 H3          5.7000    8.8240   -5.5750 hc        1 MOL      0.106214
      7 N1          3.8340    6.9550   -4.0000 n         1 MOL     -0.582282
      8 C3          3.3450    6.6510   -2.6560 c3        1 MOL      0.181695
      9 C4          3.3780    5.2100   -2.1840 c         1 MOL      0.600540
     10 O2          2.8160    4.3590   -2.7720 o         1 MOL     -0.553957
     11 C5          1.9700    7.2690   -2.5440 c3        1 MOL     -0.351983
     12 C6          1.2590    6.8930   -1.2360 c         1 MOL      0.717232
     13 O3          1.9340    6.9710   -0.2110 o         1 MOL     -0.611017
     14 O4         -0.0460    6.7590   -1.2740 o         1 MOL     -0.611017
     15 H4          3.1420    7.1050   -4.7180 hn        1 MOL      0.300749
     16 H5          3.9920    7.2120   -1.9820 h1        1 MOL      0.057446
     17 H6          1.2830    6.8820   -3.2970 hc        1 MOL      0.084295
     18 H7          2.1340    8.3510   -2.6500 hc        1 MOL      0.084295
     19 N2          4.0520    4.9580   -1.0320 n         1 MOL     -0.521293
     20 C7          4.1450    3.6340   -0.3330 c3        1 MOL      0.044663
     21 C8          2.9510    3.4920    0.6500 c         1 MOL      0.693955
     22 O5          2.9860    3.7140    1.8720 o         1 MOL     -0.566050
     23 C9          5.5440    3.6060    0.3580 c3        1 MOL      0.010478
     24 C10         5.9980    2.2870    1.0260 c3        1 MOL     -0.383917
     25 C11         6.1850    1.2480   -0.0720 c3        1 MOL      0.163936
     26 C12         7.0080    0.0660    0.4480 c3        1 MOL      0.001068
     27 N3          7.2410   -1.0190   -0.5660 n4        1 MOL     -0.192774
     28 H8          4.6090    5.7000   -0.6390 hn        1 MOL      0.279501
     29 H9          4.2280    2.8410   -1.0710 h1        1 MOL      0.053214
     30 H10         5.5220    4.4280    1.0810 hc        1 MOL      0.045262
     31 H11         6.3320    4.0020   -0.2790 hc        1 MOL      0.045262
     32 H12         5.1830    1.9060    1.6410 hc        1 MOL      0.145793
     33 H13         6.9420    2.3860    1.5630 hc        1 MOL      0.145793
     34 H14         6.7130    1.7240   -0.9000 hc        1 MOL     -0.024842
     35 H15         5.2580    0.8260   -0.4670 hc        1 MOL     -0.024842
     36 H16         6.4810   -0.3960    1.2740 hx        1 MOL      0.050408
     37 H17         7.9460    0.4980    0.8080 hx        1 MOL      0.050408
     38 H18         7.2160   -1.9000   -0.0940 hn        1 MOL      0.260722
     39 H19         6.5630   -0.9300   -1.3150 hn        1 MOL      0.260722
     40 H20         8.0670   -0.7810   -1.1080 hn        1 MOL      0.260722
     41 N4          1.8320    3.0750    0.0750 n         1 MOL     -0.669327
     42 C13         0.6000    2.7820    0.7810 c3        1 MOL      0.165614
     43 C14         0.1160    1.3390    0.3240 c         1 MOL      0.445505
     44 O6         -0.6030    1.3340   -0.6370 o         1 MOL     -0.504438
     45 C15        -0.2530    4.0030    0.3450 c3        1 MOL      0.042785
     46 C16        -1.6890    3.9200    0.9220 c         1 MOL      0.586183
     47 O7         -2.0460    2.9650    1.5620 o         1 MOL     -0.716612
     48 O8         -2.4540    4.8710    0.7280 o         1 MOL     -0.716612
     49 H21         1.8050    2.8100   -0.8980 hn        1 MOL      0.350843
     50 H22         0.7760    2.7960    1.8610 h1        1 MOL      0.061458
     51 H23        -0.3790    4.0630   -0.7350 hc        1 MOL      0.051292
     52 H24         0.2410    4.9150    0.6890 hc        1 MOL      0.051292
     53 N5          0.4950    0.1650    0.8820 n         1 MOL     -0.385599
     54 C17         1.0060   -0.0460    2.1950 c3        1 MOL     -0.105798
     55 C18         2.5120   -0.1640    2.2150 c         1 MOL      0.594627
     56 O9          3.3130    0.1010    1.3180 o         1 MOL     -0.551539
     57 H25         0.1320   -0.6430    0.3930 hn        1 MOL      0.310100
     58 H26         0.5360   -0.9440    2.5850 h1        1 MOL      0.071332
     59 H27         0.7780    0.8310    2.7990 h1        1 MOL      0.071332
     60 N6          3.0360   -0.6510    3.3150 n         1 MOL     -0.360604
     61 C19         4.4820   -0.5770    3.5920 c3        1 MOL     -0.015358
     62 C20         5.0730   -1.9630    3.3280 c         1 MOL      0.588753
     63 O10         6.2120   -2.1430    2.8360 o         1 MOL     -0.537021
     64 C21         4.6040   -0.1060    5.0450 c3        1 MOL     -0.162473
     65 C22         6.0520    0.2220    5.3730 c         1 MOL      0.664603
     66 O11         6.6660   -0.4670    6.2140 o         1 MOL     -0.657350
     67 O12         6.5880    1.2030    4.7810 o         1 MOL     -0.657350
     68 H28         2.4090   -0.9060    4.0660 hn        1 MOL      0.187898
     69 H29         4.9960    0.0980    2.9070 h1        1 MOL      0.147800
     70 H30         4.2980   -0.9770    5.6240 hc        1 MOL      0.032911
     71 H31         3.9480    0.7160    5.3240 hc        1 MOL      0.032911
     72 N7          4.3680   -3.0340    3.6480 n         1 MOL     -0.290262
     73 C23         4.8680   -4.4390    3.6500 c3        1 MOL     -0.426884
     74 C24         5.1070   -5.1540    2.3250 c         1 MOL      0.635100
     75 O13         5.3710   -6.3430    2.2250 o         1 MOL     -0.572528
     76 H32         3.4480   -2.8590    4.0390 hn        1 MOL      0.269556
     77 H33         4.1050   -4.9780    4.2200 h1        1 MOL      0.185849
     78 H34         5.8150   -4.5170    4.1900 h1        1 MOL      0.185849
     79 N8          4.9610   -4.3720    1.2440 n         1 MOL     -0.386691
     80 C25         5.1200   -4.7640   -0.1940 c3        1 MOL      0.042688
     81 C26         4.4470   -3.7550   -1.0870 c         1 MOL      0.400833
     82 O14         4.6120   -2.5100   -0.9620 o         1 MOL     -0.414657
     83 C27         6.6240   -5.0400   -0.3440 c3        1 MOL      0.418517
     84 C28         6.8450   -5.8310   -1.6650 c3        1 MOL     -0.227797
     85 O15         7.5250   -3.9640   -0.3800 oh        1 MOL     -0.668717
     86 H35         4.7680   -3.3980    1.4610 hn        1 MOL      0.162042
     87 H36         4.6630   -5.7390   -0.4120 h1        1 MOL      0.018603
     88 H37         6.9900   -5.6020    0.5100 h1        1 MOL      0.023234
     89 H38         7.9580   -4.0040    0.4760 ho        1 MOL      0.422577
     90 H39         6.6020   -6.8970   -1.6080 hc        1 MOL      0.047863
     91 H40         6.2330   -5.3870   -2.4530 hc        1 MOL      0.047863
     92 H41         7.9010   -5.8210   -1.9360 hc        1 MOL      0.047863
     93 N9          3.6860   -4.2120   -2.1180 n         1 MOL     -0.282651
     94 C29         2.8710   -3.3040   -2.9010 c3        1 MOL      0.036548
     95 C30         1.5280   -3.0760   -2.1210 c         1 MOL      0.457526
     96 O16         1.0490   -1.9180   -2.0770 o         1 MOL     -0.476371
     97 C31         2.5150   -3.8640   -4.2650 c3        1 MOL      0.112067
     98 C32         3.7300   -4.5080   -4.9490 c3        1 MOL     -0.083251
     99 C33         2.1100   -2.7020   -5.2930 c3        1 MOL     -0.552951
    100 C34         5.0820   -3.8110   -5.1000 c3        1 MOL     -0.008446
    101 H42         3.5350   -5.2050   -2.2780 hn        1 MOL      0.273435
    102 H43         3.2650   -2.2900   -2.9330 h1        1 MOL      0.071469
    103 H44         1.7670   -4.6390   -4.1590 hc        1 MOL      0.012882
    104 H45         3.5710   -4.9490   -5.9400 hc        1 MOL      0.008209
    105 H46         3.9330   -5.3370   -4.2690 hc        1 MOL      0.008209
    106 H47         2.2500   -3.2800   -6.2080 hc        1 MOL      0.169533
    107 H48         1.0870   -2.3610   -5.1230 hc        1 MOL      0.169533
    108 H49         2.7720   -1.8320   -5.2760 hc        1 MOL      0.169533
    109 H50         5.8690   -4.4970   -5.4110 hc        1 MOL      0.012998
    110 H51         5.0660   -3.0560   -5.8940 hc        1 MOL      0.012998
    111 H52         5.4550   -3.2970   -4.2200 hc        1 MOL      0.012998
    112 N10         1.0280   -4.0960   -1.3810 n         1 MOL     -0.292173
    113 C35        -0.1770   -4.0210   -0.5280 c3        1 MOL     -0.064355
    114 C36        -1.3220   -4.9780   -0.9530 c         1 MOL      0.592797
    115 O17        -1.0010   -6.0800   -1.3730 o         1 MOL     -0.515840
    116 C37         0.2950   -4.1360    0.9510 c3        1 MOL      0.424194
    117 C38         1.1140   -5.4130    1.1240 c3        1 MOL     -0.428988
    118 O18         1.1700   -3.1220    1.4690 oh        1 MOL     -0.599729
    119 H53         1.2050   -5.0480   -1.6840 hn        1 MOL      0.195260
    120 H54        -0.5010   -2.9850   -0.6740 h1        1 MOL      0.051192
    121 H55        -0.5550   -4.2830    1.6090 h1        1 MOL     -0.028714
    122 H56         1.4680   -3.3920    2.3430 ho        1 MOL      0.351326
    123 H57         2.0830   -5.4110    0.6060 hc        1 MOL      0.100240
    124 H58         1.4140   -5.5840    2.1570 hc        1 MOL      0.100240
    125 H59         0.5830   -6.2780    0.7220 hc        1 MOL      0.100240
    126 N11        -2.5910   -4.5550   -0.7840 n         1 MOL     -0.496751
    127 C39        -3.7680   -5.3970   -1.1530 c3        1 MOL      0.111155
    128 C40        -4.6960   -4.5400   -1.9680 c         1 MOL      0.447715
    129 O19        -4.7880   -4.6670   -3.1980 o         1 MOL     -0.536532
    130 C41        -4.3760   -6.0330    0.0440 c3        1 MOL      0.286404
    131 C42        -5.6220   -6.8560   -0.1660 c3        1 MOL     -0.503778
    132 O20        -4.6270   -5.0020    1.0830 oh        1 MOL     -0.646599
    133 H60        -2.6930   -3.6960   -0.2690 hn        1 MOL      0.304406
    134 H61        -3.4050   -6.2400   -1.7470 h1        1 MOL      0.077185
    135 H62        -3.5530   -6.6180    0.4730 h1        1 MOL      0.046345
    136 H63        -5.2570   -5.4050    1.6870 ho        1 MOL      0.411234
    137 H64        -5.3150   -7.5680   -0.9290 hc        1 MOL      0.140806
    138 H65        -5.8250   -7.4050    0.7620 hc        1 MOL      0.140806
    139 H66        -6.4820   -6.3250   -0.5930 hc        1 MOL      0.140806
    140 N12        -5.2840   -3.5490   -1.3330 n         1 MOL     -0.241913
    141 C43        -6.2290   -2.5770   -1.8340 c3        1 MOL      0.043163
    142 C44        -5.9630   -1.2230   -1.0600 c         1 MOL      0.340908
    143 O21        -5.4780   -1.2200    0.0830 o         1 MOL     -0.474230
    144 C45        -7.6540   -3.0890   -1.8270 c3        1 MOL     -0.543414
    145 C46        -8.2700   -3.2860   -0.4220 c3        1 MOL      0.125844
    146 C47        -9.6310   -3.9840   -0.4480 c3        1 MOL     -0.041911
    147 C48       -10.2770   -3.9180    0.9130 c3        1 MOL      0.120380
    148 N13       -11.5860   -4.6630    1.0510 n4        1 MOL     -0.159304
    149 H67        -5.1020   -3.5860   -0.3430 hn        1 MOL      0.198884
    150 H68        -5.9280   -2.4300   -2.8750 h1        1 MOL      0.115846
    151 H69        -7.6330   -4.0970   -2.2510 hc        1 MOL      0.176580
    152 H70        -8.3840   -2.4780   -2.3660 hc        1 MOL      0.176580
    153 H71        -8.4200   -2.3140    0.0430 hc        1 MOL      0.022547
    154 H72        -7.6340   -3.8550    0.2610 hc        1 MOL      0.022547
    155 H73        -9.3840   -5.0000   -0.7720 hc        1 MOL      0.028461
    156 H74       -10.2940   -3.4320   -1.1120 hc        1 MOL      0.028461
    157 H75       -10.4410   -2.8880    1.2280 hx        1 MOL      0.020726
    158 H76        -9.5380   -4.3690    1.5810 hx        1 MOL      0.020726
    159 H77       -11.4600   -5.6340    1.2790 hn        1 MOL      0.171914
    160 H78       -12.0710   -4.2150    1.8120 hn        1 MOL      0.171914
    161 H79       -12.2020   -4.5320    0.2540 hn        1 MOL      0.171914
    162 N14        -6.3190   -0.1310   -1.7100 n         1 MOL     -0.194223
    163 C49        -6.3200    1.2010   -1.0810 c3        1 MOL      0.009013
    164 C50        -4.9290    1.6760   -0.6600 c         1 MOL      0.457490
    165 O22        -4.8980    2.0340    0.4790 o         1 MOL     -0.575351
    166 C51        -7.0620    2.2000   -1.8960 c3        1 MOL     -0.295061
    167 C52        -7.7080    3.2290   -0.9800 c3        1 MOL     -0.003033
    168 C53        -6.7820    4.3530   -0.6230 c         1 MOL      0.591869
    169 O23        -6.3810    4.4000    0.5400 o         1 MOL     -0.659497
    170 O24        -6.4160    5.2150   -1.4850 o         1 MOL     -0.659497
    171 H80        -6.7990   -0.2740   -2.5830 hn        1 MOL      0.205944
    172 H81        -6.8090    0.9890   -0.1340 h1        1 MOL      0.090291
    173 H82        -7.8110    1.7540   -2.5630 hc        1 MOL      0.114986
    174 H83        -6.3210    2.6540   -2.5650 hc        1 MOL      0.114986
    175 H84        -8.0280    2.6630   -0.1080 hc        1 MOL     -0.005766
    176 H85        -8.5250    3.6880   -1.5380 hc        1 MOL     -0.005766
    177 N15        -3.7530    1.5020   -1.2930 n         1 MOL     -0.215347
    178 C54        -3.5480    1.0020   -2.7180 c3        1 MOL     -0.024242
    179 H86        -2.5810    0.5030   -2.7910 h1        1 MOL      0.044708
    180 H87        -4.3410    0.2980   -2.9730 h1        1 MOL      0.044708
    181 H88        -3.5750    1.8450   -3.4070 h1        1 MOL      0.044708
    182 H89        -2.9090    1.5040   -0.7370 hn        1 MOL      0.234146
    183 Ca1        -4.4900    3.8930    2.2380 Ca        1 MOL      1.728014
    184 O25        -2.6720    5.2850    3.6960 oh        1 MOL     -0.805852
    185 H90        -2.8950    6.0300    4.2620 ho        1 MOL      0.398763
    186 H91        -2.0570    5.6370    3.0630 ho        1 MOL      0.398763
    187 O26        -4.7890    6.4790    1.6890 oh        1 MOL     -0.805852
    188 H92        -5.2780    6.6920    0.8950 ho        1 MOL      0.398763
    189 H93        -4.3860    7.3050    1.9510 ho        1 MOL      0.398763
    190 O27        -6.9680    2.4150    2.8170 oh        1 MOL     -0.805852
    191 H94        -7.0400    1.5710    3.2650 ho        1 MOL      0.398763
    192 H95        -7.8730    2.7000    2.7000 ho        1 MOL      0.398763
    193 O28        -4.1910    1.7870    4.0710 oh        1 MOL     -0.805852
    194 H96        -4.0700    1.7150    5.0180 ho        1 MOL      0.398763
    195 H97        -4.7910    1.0720    3.8500 ho        1 MOL      0.398763
    196 O29        -5.6140    5.1080    4.5000 oh        1 MOL     -0.805852
    197 H98        -5.3210    5.9570    4.8370 ho        1 MOL      0.398763
    198 H99        -5.9440    4.6480    5.2790 ho        1 MOL      0.398763
@<TRIPOS>BOND
     1    1    2 1   
     2    1    4 1   
     3    1    5 1   
     4    1    6 1   
     5    2    3 2   
     6    2    7 1   
     7    7    8 1   
     8    7   15 1   
     9    8    9 1   
    10    8   11 1   
    11    8   16 1   
    12    9   10 2   
    13    9   19 1   
    14   11   12 1   
    15   11   17 1   
    16   11   18 1   
    17   12   13 1   
    18   12   14 1   
    19   19   20 1   
    20   19   28 1   
    21   20   21 1   
    22   20   23 1   
    23   20   29 1   
    24   21   22 2   
    25   21   41 1   
    26   23   24 1   
    27   23   30 1   
    28   23   31 1   
    29   24   25 1   
    30   24   32 1   
    31   24   33 1   
    32   25   26 1   
    33   25   34 1   
    34   25   35 1   
    35   26   27 1   
    36   26   36 1   
    37   26   37 1   
    38   27   38 1   
    39   27   39 1   
    40   27   40 1   
    41   41   42 1   
    42   41   49 1   
    43   42   43 1   
    44   42   45 1   
    45   42   50 1   
    46   43   44 2   
    47   43   53 1   
    48   45   46 1   
    49   45   51 1   
    50   45   52 1   
    51   46   47 1   
    52   46   48 1   
    53   53   54 1   
    54   53   57 1   
    55   54   55 1   
    56   54   58 1   
    57   54   59 1   
    58   55   56 2   
    59   55   60 1   
    60   60   61 1   
    61   60   68 1   
    62   61   62 1   
    63   61   64 1   
    64   61   69 1   
    65   62   63 2   
    66   62   72 1   
    67   64   65 1   
    68   64   70 1   
    69   64   71 1   
    70   65   66 1   
    71   65   67 1   
    72   72   73 1   
    73   72   76 1   
    74   73   74 1   
    75   73   77 1   
    76   73   78 1   
    77   74   75 2   
    78   74   79 1   
    79   79   80 1   
    80   79   86 1   
    81   80   81 1   
    82   80   83 1   
    83   80   87 1   
    84   81   82 2   
    85   81   93 1   
    86   83   84 1   
    87   83   85 1   
    88   83   88 1   
    89   84   90 1   
    90   84   91 1   
    91   84   92 1   
    92   85   89 1   
    93   93   94 1   
    94   93  101 1   
    95   94   95 1   
    96   94   97 1   
    97   94  102 1   
    98   95   96 2   
    99   95  112 1   
   100   97   98 1   
   101   97   99 1   
   102   97  103 1   
   103   98  100 1   
   104   98  104 1   
   105   98  105 1   
   106   99  106 1   
   107   99  107 1   
   108   99  108 1   
   109  100  109 1   
   110  100  110 1   
   111  100  111 1   
   112  112  113 1   
   113  112  119 1   
   114  113  114 1   
   115  113  116 1   
   116  113  120 1   
   117  114  115 2   
   118  114  126 1   
   119  116  117 1   
   120  116  118 1   
   121  116  121 1   
   122  117  123 1   
   123  117  124 1   
   124  117  125 1   
   125  118  122 1   
   126  126  127 1   
   127  126  133 1   
   128  127  128 1   
   129  127  130 1   
   130  127  134 1   
   131  128  129 2   
   132  128  140 1   
   133  130  131 1   
   134  130  132 1   
   135  130  135 1   
   136  131  137 1   
   137  131  138 1   
   138  131  139 1   
   139  132  136 1   
   140  140  141 1   
   141  140  149 1   
   142  141  142 1   
   143  141  144 1   
   144  141  150 1   
   145  142  143 2   
   146  142  162 1   
   147  144  145 1   
   148  144  151 1   
   149  144  152 1   
   150  145  146 1   
   151  145  153 1   
   152  145  154 1   
   153  146  147 1   
   154  146  155 1   
   155  146  156 1   
   156  147  148 1   
   157  147  157 1   
   158  147  158 1   
   159  148  159 1   
   160  148  160 1   
   161  148  161 1   
   162  162  163 1   
   163  162  171 1   
   164  163  164 1   
   165  163  166 1   
   166  163  172 1   
   167  164  165 2   
   168  164  177 1   
   169  166  167 1   
   170  166  173 1   
   171  166  174 1   
   172  167  168 1   
   173  167  175 1   
   174  167  176 1   
   175  168  169 1   
   176  168  170 1   
   177  177  178 1   
   178  177  182 1   
   179  178  179 1   
   180  178  180 1   
   181  178  181 1   
   182  184  185 1   
   183  184  186 1   
   184  187  188 1   
   185  187  189 1   
   186  190  191 1   
   187  190  192 1   
   188  193  194 1   
   189  193  195 1   
   190  196  197 1   
   191  196  198 1   
@<TRIPOS>SUBSTRUCTURE
     1 MOL         1 TEMP              0 ****  ****    0 ROOT
