@<TRIPOS>MOLECULE
MOL
  195   189     1     0     0
SMALL
resp


@<TRIPOS>ATOM
      1 C1         -4.0990   -4.8470   -3.8630 c3        1 MOL     -0.495298
      2 C2         -4.7040   -4.0720   -2.6870 c         1 MOL      0.790209
      3 O1         -3.9150   -3.8170   -1.8240 o         1 MOL     -0.558782
      4 H1         -3.5300   -5.6960   -3.4840 hc        1 MOL      0.119023
      5 H2         -4.8990   -5.2070   -4.5120 hc        1 MOL      0.119023
      6 H3         -3.4380   -4.1910   -4.4300 hc        1 MOL      0.119023
      7 N1         -6.0670   -3.8480   -2.6590 n         1 MOL     -0.777290
      8 C3         -6.6290   -2.9840   -1.6260 c3        1 MOL      0.235475
      9 C4         -5.9400   -1.6410   -1.4070 c         1 MOL      0.407108
     10 O2         -5.7200   -1.2440   -0.2400 o         1 MOL     -0.565987
     11 C5         -7.1060   -3.7910   -0.3550 c3        1 MOL     -0.201108
     12 C6         -6.0160   -4.7350    0.2160 c         1 MOL      0.804157
     13 O3         -6.2420   -5.9570   -0.0090 o         1 MOL     -0.730886
     14 O4         -5.1470   -4.3270    1.0060 o         1 MOL     -0.730886
     15 H4         -6.7190   -4.3400   -3.2550 hn        1 MOL      0.389230
     16 H5         -7.5560   -2.5880   -2.0420 h1        1 MOL      0.041405
     17 H6         -7.9900   -4.3800   -0.6080 hc        1 MOL      0.038941
     18 H7         -7.4600   -3.1010    0.4210 hc        1 MOL      0.038941
     19 N2         -5.5890   -0.9080   -2.4750 n         1 MOL     -0.479889
     20 C7         -5.0000    0.4690   -2.4790 c3        1 MOL      0.122536
     21 C8         -5.7950    1.6400   -1.9350 c         1 MOL      0.431735
     22 O5         -6.0700    2.6130   -2.6150 o         1 MOL     -0.542844
     23 C9         -3.4900    0.3950   -1.9510 c3        1 MOL      0.057343
     24 C10        -2.8120    1.7310   -2.0500 c3        1 MOL     -0.000331
     25 C11        -2.7410   -0.6860   -2.7230 c3        1 MOL     -0.282269
     26 C12        -2.4730    2.1930   -3.4200 c3        1 MOL     -0.182127
     27 H8         -5.9170   -1.2450   -3.3670 hn        1 MOL      0.290069
     28 H9         -4.8940    0.7320   -3.5260 h1        1 MOL      0.021614
     29 H10        -3.4860    0.0280   -0.9210 hc        1 MOL     -0.011775
     30 H11        -1.8710    1.4740   -1.5730 hc        1 MOL      0.054946
     31 H12        -3.4160    2.4990   -1.5610 hc        1 MOL      0.054946
     32 H13        -3.0910   -1.6300   -2.3130 hc        1 MOL      0.068596
     33 H14        -2.8610   -0.6670   -3.8110 hc        1 MOL      0.068596
     34 H15        -1.6560   -0.5800   -2.6890 hc        1 MOL      0.068596
     35 H16        -1.7430    3.0040   -3.3370 hc        1 MOL      0.030224
     36 H17        -2.0460    1.3840   -4.0160 hc        1 MOL      0.030224
     37 H18        -3.3830    2.5800   -3.8760 hc        1 MOL      0.030224
     38 N3         -6.2040    1.4770   -0.6660 n         1 MOL     -0.315936
     39 C13        -7.2460    2.4030   -0.0660 c3        1 MOL      0.190857
     40 C14        -6.8280    3.9060    0.1330 c         1 MOL      0.520327
     41 O6         -7.6520    4.8550    0.0990 o         1 MOL     -0.525307
     42 C15        -7.9470    1.8400    1.2150 c3        1 MOL     -0.274662
     43 C16        -9.3190    2.4790    1.6520 c         1 MOL      0.749238
     44 O7        -10.0120    2.9710    0.7140 o         1 MOL     -0.728510
     45 O8         -9.7110    2.4820    2.8620 o         1 MOL     -0.728510
     46 H19        -5.9710    0.6290   -0.1620 hn        1 MOL      0.329415
     47 H20        -7.9960    2.5050   -0.8520 h1        1 MOL      0.007054
     48 H21        -7.2480    1.8110    2.0490 hc        1 MOL      0.039746
     49 H22        -8.3220    0.8440    0.9880 hc        1 MOL      0.039746
     50 N4         -5.5420    4.1910    0.2480 n         1 MOL     -0.563852
     51 C17        -4.4820    3.4410    0.8880 c3        1 MOL      0.357698
     52 C18        -4.5400    3.4510    2.4320 c         1 MOL      0.473553
     53 O9         -5.6460    3.6190    2.9960 o         1 MOL     -0.508796
     54 H23        -5.2360    5.1380    0.0930 hn        1 MOL      0.288789
     55 H24        -3.5360    3.8670    0.5570 h1        1 MOL     -0.045319
     56 H25        -4.4660    2.3740    0.6570 h1        1 MOL     -0.045319
     57 N5         -3.4580    3.1990    3.1830 n         1 MOL     -0.589765
     58 C19        -2.1000    3.0540    2.6960 c3        1 MOL      0.366520
     59 C20        -1.8160    1.7010    2.0710 c         1 MOL      0.318658
     60 O10        -2.6220    0.7740    2.2930 o         1 MOL     -0.467903
     61 C21        -1.1710    3.2540    3.8560 c3        1 MOL     -0.244827
     62 C22        -1.3300    4.5890    4.6280 c         1 MOL      0.690173
     63 O11        -1.5960    5.5730    3.9320 o         1 MOL     -0.710193
     64 O12        -1.1820    4.5290    5.8480 o         1 MOL     -0.710193
     65 H26        -3.5080    3.2350    4.1960 hn        1 MOL      0.363219
     66 H27        -1.8760    3.8660    2.0140 h1        1 MOL     -0.034079
     67 H28        -0.1200    3.1720    3.5720 hc        1 MOL      0.044599
     68 H29        -1.4760    2.5770    4.6640 hc        1 MOL      0.044599
     69 N6         -0.6990    1.6160    1.2720 n         1 MOL     -0.486701
     70 C23         0.3280    2.5800    0.9020 c3        1 MOL     -0.110849
     71 C24         0.1420    3.5550   -0.2760 c         1 MOL      0.542471
     72 O13        -0.8780    4.1790   -0.5450 o         1 MOL     -0.461745
     73 H30        -0.4490    0.6730    1.0050 hn        1 MOL      0.348833
     74 H31         1.1920    1.9470    0.7060 h1        1 MOL      0.106116
     75 H32         0.6810    3.1350    1.7760 h1        1 MOL      0.106116
     76 N7          1.2720    3.8830   -0.9080 n         1 MOL     -0.511687
     77 C25         1.4480    4.8500   -1.9940 c3        1 MOL      0.093060
     78 C26         2.2790    4.2980   -3.1930 c         1 MOL      0.328371
     79 O14         2.4540    4.9990   -4.1770 o         1 MOL     -0.509052
     80 C27         2.1990    6.0450   -1.4290 c3        1 MOL      0.052489
     81 C28         1.4280    6.9840   -0.4930 c3        1 MOL     -0.237069
     82 C29         2.2940    8.0700    0.0330 c         1 MOL      0.656089
     83 N8          2.3970    8.2000    1.3280 n         1 MOL     -0.762583
     84 O15         2.8590    8.7720   -0.7280 o         1 MOL     -0.572621
     85 H33         2.1630    3.6880   -0.4680 hn        1 MOL      0.256475
     86 H34         0.5300    5.2770   -2.3810 h1        1 MOL      0.122222
     87 H35         2.6750    6.7170   -2.1430 hc        1 MOL      0.020809
     88 H36         2.9510    5.6260   -0.7560 hc        1 MOL      0.020809
     89 H37         1.0280    6.3850    0.3190 hc        1 MOL      0.084640
     90 H38         0.4970    7.3430   -0.9440 hc        1 MOL      0.084640
     91 H39         1.8960    7.5340    1.8980 hn        1 MOL      0.355992
     92 H40         3.0460    8.8800    1.7090 hn        1 MOL      0.355992
     93 N9          2.7920    3.0910   -3.1830 n         1 MOL     -0.146763
     94 C30         3.3190    2.4070   -4.4020 c3        1 MOL     -0.179606
     95 C31         4.7280    1.7360   -4.2280 c         1 MOL      0.455935
     96 O16         5.2150    0.8970   -4.9880 o         1 MOL     -0.550289
     97 C32         2.2880    1.3910   -4.9800 c3        1 MOL      0.271180
     98 C33         0.8650    2.0150   -5.1720 c3        1 MOL     -0.356001
     99 C34         2.1890    0.1220   -4.0820 c3        1 MOL     -0.356001
    100 H41         2.5960    2.4440   -2.4340 hn        1 MOL      0.210406
    101 H42         3.4700    3.1330   -5.2000 h1        1 MOL      0.128840
    102 H43         2.6730    0.9760   -5.9060 hc        1 MOL     -0.002889
    103 H44         0.9670    2.9540   -5.7040 hc        1 MOL      0.095083
    104 H45         0.1580    1.3160   -5.6210 hc        1 MOL      0.095083
    105 H46         0.4930    2.2640   -4.1760 hc        1 MOL      0.095083
    106 H47         3.0970   -0.4760   -4.1390 hc        1 MOL      0.095083
    107 H48         1.9860    0.3890   -3.0480 hc        1 MOL      0.095083
    108 H49         1.3330   -0.4040   -4.5180 hc        1 MOL      0.095083
    109 N10         5.4130    2.0370   -3.0900 n         1 MOL     -0.235257
    110 C35         6.8520    1.7830   -2.7210 c3        1 MOL     -0.009059
    111 C36         7.1370    0.7450   -1.5410 c         1 MOL      0.432376
    112 O17         8.3300    0.5630   -1.2180 o         1 MOL     -0.514991
    113 C37         7.4670    3.1730   -2.4650 c3        1 MOL     -0.330097
    114 C38         6.8120    3.7950   -1.2230 c         1 MOL      0.628214
    115 N11         7.6830    4.1180   -0.2490 n         1 MOL     -0.743816
    116 O18         5.5860    3.8970   -1.0860 o         1 MOL     -0.540524
    117 H50         4.8540    2.6770   -2.5540 hn        1 MOL      0.177834
    118 H51         7.2450    1.4520   -3.6850 h1        1 MOL      0.126594
    119 H52         7.4240    3.7020   -3.4210 hc        1 MOL      0.110725
    120 H53         8.4960    2.9170   -2.2390 hc        1 MOL      0.110725
    121 H54         8.6690    4.1350   -0.4530 hn        1 MOL      0.361341
    122 H55         7.3600    4.2340    0.7020 hn        1 MOL      0.361341
    123 N12         6.0440    0.2870   -0.8670 n         1 MOL     -0.362155
    124 C39         6.0880   -0.4700    0.3710 c3        1 MOL      0.129880
    125 C40         4.9910   -1.5550    0.5260 c         1 MOL      0.368429
    126 O19         3.8240   -1.2880    0.2790 o         1 MOL     -0.497471
    127 C41         6.0670    0.5440    1.5590 c3        1 MOL     -0.093378
    128 C42         6.3410   -0.1360    2.8360 ca        1 MOL      0.067682
    129 C43         5.3750    0.0670    3.8600 ca        1 MOL     -0.273783
    130 C44         7.4820   -0.9770    3.0910 ca        1 MOL     -0.273783
    131 C45         5.5760   -0.4560    5.1530 ca        1 MOL     -0.184515
    132 C46         7.6690   -1.4450    4.3860 ca        1 MOL     -0.184515
    133 C47         6.7300   -1.2290    5.4210 ca        1 MOL      0.370522
    134 O20         6.9990   -1.6190    6.7170 oh        1 MOL     -0.620903
    135 H56         5.1400    0.6270   -1.1580 hn        1 MOL      0.231064
    136 H57         6.9830   -1.0950    0.3940 h1        1 MOL      0.010613
    137 H58         5.1230    1.0560    1.7300 hc        1 MOL      0.077650
    138 H59         6.7800    1.3240    1.3230 hc        1 MOL      0.077650
    139 H60         4.6050    0.8070    3.7100 ha        1 MOL      0.158705
    140 H61         8.1290   -1.3090    2.2780 ha        1 MOL      0.158705
    141 H62         4.8470   -0.1710    5.9030 ha        1 MOL      0.137586
    142 H63         8.5820   -1.9970    4.5380 ha        1 MOL      0.137586
    143 H64         6.2280   -1.5650    7.2830 ho        1 MOL      0.454244
    144 N13         5.3530   -2.7720    1.0520 n         1 MOL     -0.253684
    145 C48         4.5700   -3.8070    1.6290 c3        1 MOL     -0.060948
    146 C49         3.4530   -4.4050    0.7750 c         1 MOL      0.699913
    147 O21         2.4220   -4.7330    1.2660 o         1 MOL     -0.502781
    148 C50         4.0410   -3.5610    3.0960 c3        1 MOL      0.351321
    149 C51         2.9040   -2.5220    3.3200 c3        1 MOL     -0.544284
    150 C52         2.1010   -2.8270    4.6280 c         1 MOL      0.796898
    151 O22         1.2730   -1.9780    4.9670 o         1 MOL     -0.736174
    152 O23         2.3460   -3.8110    5.3880 o         1 MOL     -0.736174
    153 H65         6.3240   -2.9950    0.9630 hn        1 MOL      0.227289
    154 H66         5.3510   -4.5590    1.7840 h1        1 MOL      0.028077
    155 H67         4.9220   -3.3180    3.6750 hc        1 MOL     -0.089779
    156 H68         3.7160   -4.5610    3.4000 hc        1 MOL     -0.089779
    157 H69         2.1390   -2.3950    2.5470 hc        1 MOL      0.179730
    158 H70         3.3000   -1.5060    3.2990 hc        1 MOL      0.179730
    159 N14         3.6090   -4.5290   -0.5370 n         1 MOL     -0.771651
    160 C53         2.4650   -4.7520   -1.4910 c3        1 MOL      0.186971
    161 C54         2.9470   -5.7870   -2.5500 c         1 MOL      0.615380
    162 O24         2.1070   -6.4820   -3.0600 o         1 MOL     -0.543554
    163 C55         2.0890   -3.3980   -2.0940 c3        1 MOL      0.027018
    164 C56         0.7020   -3.3800   -2.6550 c3        1 MOL     -0.020053
    165 C57        -0.4470   -3.4560   -1.6000 c         1 MOL      0.839021
    166 O25        -0.9670   -4.5390   -1.3640 o         1 MOL     -0.785371
    167 O26        -0.6230   -2.5940   -0.7420 o         1 MOL     -0.785371
    168 H71         4.5240   -4.3350   -0.9080 hn        1 MOL      0.250419
    169 H72         1.6820   -5.2260   -0.8980 h1        1 MOL      0.023110
    170 H73         2.8440   -3.0360   -2.7870 hc        1 MOL      0.025641
    171 H74         2.0670   -2.7680   -1.2040 hc        1 MOL      0.025641
    172 H75         0.6400   -4.0760   -3.4930 hc        1 MOL     -0.044179
    173 H76         0.5850   -2.3480   -3.0120 hc        1 MOL     -0.044179
    174 N15         4.2420   -5.9910   -2.8410 n         1 MOL     -0.417580
    175 C58         4.6460   -7.0270   -3.7900 c3        1 MOL     -0.215475
    176 H77         5.6560   -7.3620   -3.5530 h1        1 MOL      0.102047
    177 H78         3.9580   -7.8710   -3.7210 h1        1 MOL      0.102047
    178 H79         4.6260   -6.6220   -4.8020 h1        1 MOL      0.102047
    179 H80         4.9740   -5.6020   -2.2740 hn        1 MOL      0.292651
    180 Ca1        -2.4230   -4.0670    0.6930 Ca        1 MOL      1.784143
    181 O27        -3.4180   -1.6050    1.0210 oh        1 MOL     -0.823516
    182 H81        -4.2130   -1.3070    0.5890 ho        1 MOL      0.396242
    183 H82        -3.0170   -0.8100    1.3640 ho        1 MOL      0.396242
    184 O28        -2.1340   -6.8250    0.5270 oh        1 MOL     -0.823516
    185 H83        -1.7610   -7.3100    1.2640 ho        1 MOL      0.396242
    186 H84        -1.5010   -6.9600   -0.1880 ho        1 MOL      0.396242
    187 O29        -3.3310   -5.1560    2.9300 oh        1 MOL     -0.823516
    188 H85        -2.8100   -5.3650    3.7050 ho        1 MOL      0.396242
    189 H86        -4.2440   -5.2380    3.2290 ho        1 MOL      0.396242
    190 O30        -1.4550   -2.5780    3.1170 oh        1 MOL     -0.823516
    191 H87        -0.6520   -2.4980    3.6290 ho        1 MOL      0.396242
    192 H88        -1.9700   -1.8090    3.3550 ho        1 MOL      0.396242
    193 O31        -0.0680   -4.9000    1.6240 oh        1 MOL     -0.823516
    194 H89         0.8370   -4.7470    1.3320 ho        1 MOL      0.396242
    195 H90        -0.0900   -5.8170    1.8770 ho        1 MOL      0.396242
@<TRIPOS>BOND
     1    1    2 1   
     2    1    4 1   
     3    1    5 1   
     4    1    6 1   
     5    2    3 2   
     6    2    7 1   
     7    7    8 1   
     8    7   15 1   
     9    8    9 1   
    10    8   11 1   
    11    8   16 1   
    12    9   10 2   
    13    9   19 1   
    14   11   12 1   
    15   11   17 1   
    16   11   18 1   
    17   12   13 1   
    18   12   14 1   
    19   19   20 1   
    20   19   27 1   
    21   20   21 1   
    22   20   23 1   
    23   20   28 1   
    24   21   22 2   
    25   21   38 1   
    26   23   24 1   
    27   23   25 1   
    28   23   29 1   
    29   24   26 1   
    30   24   30 1   
    31   24   31 1   
    32   25   32 1   
    33   25   33 1   
    34   25   34 1   
    35   26   35 1   
    36   26   36 1   
    37   26   37 1   
    38   38   39 1   
    39   38   46 1   
    40   39   40 1   
    41   39   42 1   
    42   39   47 1   
    43   40   41 2   
    44   40   50 1   
    45   42   43 1   
    46   42   48 1   
    47   42   49 1   
    48   43   44 1   
    49   43   45 1   
    50   50   51 1   
    51   50   54 1   
    52   51   52 1   
    53   51   55 1   
    54   51   56 1   
    55   52   53 2   
    56   52   57 1   
    57   57   58 1   
    58   57   65 1   
    59   58   59 1   
    60   58   61 1   
    61   58   66 1   
    62   59   60 2   
    63   59   69 1   
    64   61   62 1   
    65   61   67 1   
    66   61   68 1   
    67   62   63 1   
    68   62   64 1   
    69   69   70 1   
    70   69   73 1   
    71   70   71 1   
    72   70   74 1   
    73   70   75 1   
    74   71   72 2   
    75   71   76 1   
    76   76   77 1   
    77   76   85 1   
    78   77   78 1   
    79   77   80 1   
    80   77   86 1   
    81   78   79 2   
    82   78   93 1   
    83   80   81 1   
    84   80   87 1   
    85   80   88 1   
    86   81   82 1   
    87   81   89 1   
    88   81   90 1   
    89   82   83 1   
    90   82   84 2   
    91   83   91 1   
    92   83   92 1   
    93   93   94 1   
    94   93  100 1   
    95   94   95 1   
    96   94   97 1   
    97   94  101 1   
    98   95   96 2   
    99   95  109 1   
   100   97   98 1   
   101   97   99 1   
   102   97  102 1   
   103   98  103 1   
   104   98  104 1   
   105   98  105 1   
   106   99  106 1   
   107   99  107 1   
   108   99  108 1   
   109  109  110 1   
   110  109  117 1   
   111  110  111 1   
   112  110  113 1   
   113  110  118 1   
   114  111  112 2   
   115  111  123 1   
   116  113  114 1   
   117  113  119 1   
   118  113  120 1   
   119  114  115 1   
   120  114  116 2   
   121  115  121 1   
   122  115  122 1   
   123  123  124 1   
   124  123  135 1   
   125  124  125 1   
   126  124  127 1   
   127  124  136 1   
   128  125  126 2   
   129  125  144 1   
   130  127  128 1   
   131  127  137 1   
   132  127  138 1   
   133  128  129 ar  
   134  128  130 ar  
   135  129  131 ar  
   136  129  139 1   
   137  130  132 ar  
   138  130  140 1   
   139  131  133 ar  
   140  131  141 1   
   141  132  133 ar  
   142  132  142 1   
   143  133  134 1   
   144  134  143 1   
   145  144  145 1   
   146  144  153 1   
   147  145  146 1   
   148  145  148 1   
   149  145  154 1   
   150  146  147 2   
   151  146  159 1   
   152  148  149 1   
   153  148  155 1   
   154  148  156 1   
   155  149  150 1   
   156  149  157 1   
   157  149  158 1   
   158  150  151 1   
   159  150  152 1   
   160  159  160 1   
   161  159  168 1   
   162  160  161 1   
   163  160  163 1   
   164  160  169 1   
   165  161  162 2   
   166  161  174 1   
   167  163  164 1   
   168  163  170 1   
   169  163  171 1   
   170  164  165 1   
   171  164  172 1   
   172  164  173 1   
   173  165  166 1   
   174  165  167 1   
   175  174  175 1   
   176  174  179 1   
   177  175  176 1   
   178  175  177 1   
   179  175  178 1   
   180  181  182 1   
   181  181  183 1   
   182  184  185 1   
   183  184  186 1   
   184  187  188 1   
   185  187  189 1   
   186  190  191 1   
   187  190  192 1   
   188  193  194 1   
   189  193  195 1   
@<TRIPOS>SUBSTRUCTURE
     1 MOL         1 TEMP              0 ****  ****    0 ROOT
