@<TRIPOS>MOLECULE
MOL
  201   193     1     0     0
SMALL
resp


@<TRIPOS>ATOM
      1 C1          4.1550   -4.8930    3.5950 c3        1 MOL     -0.260359
      2 C2          5.0630   -3.6810    3.9330 c         1 MOL      0.670905
      3 O1          5.1400   -3.3380    5.0970 o         1 MOL     -0.576057
      4 H1          4.1180   -5.5680    4.4500 hc        1 MOL      0.066273
      5 H2          3.1490   -4.5420    3.3660 hc        1 MOL      0.066273
      6 H3          4.5600   -5.4230    2.7330 hc        1 MOL      0.066273
      7 N1          5.8240   -3.1310    2.9700 n         1 MOL     -0.384410
      8 C3          6.8400   -2.0840    3.0240 c3        1 MOL      0.085615
      9 C4          6.6160   -0.9100    1.9640 c         1 MOL      0.492871
     10 O2          5.7750   -1.0730    1.0690 o         1 MOL     -0.501848
     11 C5          8.2620   -2.7660    2.8420 c3        1 MOL     -0.254529
     12 C6          8.3450   -3.7770    1.7040 c         1 MOL      0.755176
     13 O3          7.4980   -3.7050    0.7760 o         1 MOL     -0.712453
     14 O4          9.2170   -4.7010    1.7670 o         1 MOL     -0.712453
     15 H4          5.6250   -3.4590    2.0360 hn        1 MOL      0.230464
     16 H5          6.9180   -1.5570    3.9660 h1        1 MOL      0.040317
     17 H6          8.4310   -3.3680    3.7380 hc        1 MOL      0.080869
     18 H7          9.0280   -2.0200    2.6880 hc        1 MOL      0.080869
     19 N2          7.3690    0.2340    2.1170 n         1 MOL     -0.578862
     20 C7          7.4280    1.4840    1.3200 c3        1 MOL      0.401184
     21 C8          8.6550    1.6180    0.4470 c         1 MOL      0.395562
     22 O5          9.5990    2.3460    0.6970 o         1 MOL     -0.526691
     23 C9          7.0490    2.7430    2.1480 c3        1 MOL     -0.713193
     24 C10         5.6120    2.8090    2.5790 c3        1 MOL      0.262771
     25 C11         5.4920    3.8640    3.7290 c3        1 MOL     -0.105827
     26 C12         4.0930    4.0530    4.2380 c3        1 MOL     -0.033745
     27 N3          3.1250    4.5480    3.2900 n4        1 MOL     -0.349305
     28 H8          8.1330    0.1980    2.7700 hn        1 MOL      0.339137
     29 H9          6.6630    1.3550    0.5550 h1        1 MOL      0.041372
     30 H10         7.1830    3.5930    1.4810 hc        1 MOL      0.185000
     31 H11         7.6550    2.9230    3.0330 hc        1 MOL      0.185000
     32 H12         5.2630    1.8200    2.9000 hc        1 MOL     -0.005415
     33 H13         5.0080    3.0510    1.7080 hc        1 MOL     -0.005415
     34 H14         5.9010    4.7730    3.2790 hc        1 MOL      0.080542
     35 H15         6.2690    3.6000    4.4490 hc        1 MOL      0.080542
     36 H16         4.0130    4.7010    5.1150 hx        1 MOL      0.085300
     37 H17         3.8510    3.0100    4.4490 hx        1 MOL      0.085300
     38 H18         3.0440    4.0200    2.4240 hn        1 MOL      0.326683
     39 H19         2.2060    4.2830    3.6230 hn        1 MOL      0.326683
     40 H20         3.2720    5.5290    3.1100 hn        1 MOL      0.326683
     41 N4          8.7520    0.7370   -0.5810 n         1 MOL     -0.448741
     42 C13         9.8170    0.5590   -1.5650 c3        1 MOL      0.516522
     43 C14         9.5210    1.2920   -2.9560 c         1 MOL      0.216388
     44 O6          9.0900    0.6300   -3.8770 o         1 MOL     -0.461037
     45 C15        10.1780   -0.8810   -1.7370 c3        1 MOL     -0.724850
     46 C16         8.9980   -1.8480   -1.8750 c         1 MOL      1.086390
     47 O7          9.3470   -3.0360   -2.1950 o         1 MOL     -0.891374
     48 O8          7.8210   -1.6250   -1.5230 o         1 MOL     -0.891374
     49 H21         7.9500    0.1340   -0.6040 hn        1 MOL      0.315779
     50 H22        10.7410    0.9820   -1.1640 h1        1 MOL      0.041319
     51 H23        10.7590   -1.1990   -0.8770 hc        1 MOL      0.165754
     52 H24        10.8960   -0.9660   -2.5490 hc        1 MOL      0.165754
     53 N5          9.9340    2.5750   -3.2200 n         1 MOL     -0.351123
     54 C17        10.2330    3.6510   -2.2570 c3        1 MOL     -0.184925
     55 C18         8.9680    4.3000   -1.7120 c         1 MOL      0.638030
     56 O9          9.0090    5.2340   -0.8270 o         1 MOL     -0.553058
     57 H25         9.8480    2.8330   -4.1990 hn        1 MOL      0.306177
     58 H26        10.8300    4.3710   -2.7960 h1        1 MOL      0.104973
     59 H27        10.7650    3.2020   -1.4140 h1        1 MOL      0.104973
     60 N6          7.7480    3.9260   -2.1660 n         1 MOL     -0.372078
     61 C19         6.4290    4.2010   -1.5430 c3        1 MOL      0.036476
     62 C20         5.5850    2.9460   -1.5240 c         1 MOL      0.600964
     63 O10         5.9990    2.0740   -2.2420 o         1 MOL     -0.498694
     64 C21         5.7050    5.2230   -2.3690 c3        1 MOL     -0.402611
     65 C22         6.4030    6.5410   -2.4510 c         1 MOL      0.860130
     66 O11         7.1820    6.8080   -3.3690 o         1 MOL     -0.726992
     67 O12         6.0940    7.3510   -1.5890 o         1 MOL     -0.726992
     68 H28         7.7450    3.2290   -2.8870 hn        1 MOL      0.266199
     69 H29         6.5970    4.5160   -0.5100 h1        1 MOL      0.049999
     70 H30         4.6950    5.3570   -1.9950 hc        1 MOL      0.068457
     71 H31         5.6160    4.8920   -3.4080 hc        1 MOL      0.068457
     72 N7          4.4400    2.8930   -0.7790 n         1 MOL     -0.416846
     73 C23         3.6940    1.6520   -0.5960 c3        1 MOL     -0.169622
     74 C24         2.5770    1.6360    0.4010 c         1 MOL      0.744065
     75 O13         2.5690    2.5990    1.1930 o         1 MOL     -0.675106
     76 H32         4.1180    3.6750   -0.2400 hn        1 MOL      0.276107
     77 H33         4.3410    0.7820   -0.4430 h1        1 MOL      0.086569
     78 H34         3.1160    1.4850   -1.5030 h1        1 MOL      0.086569
     79 N8          1.6910    0.6070    0.3820 n         1 MOL     -0.446546
     80 C25         0.5740    0.5820    1.3030 c3        1 MOL     -0.036980
     81 C26        -0.6360   -0.3010    0.8180 c         1 MOL      0.439258
     82 O14        -0.5150   -1.0010   -0.1770 o         1 MOL     -0.477096
     83 C27         1.0890    0.0080    2.6740 c3        1 MOL      0.405634
     84 C28         1.7430   -1.4160    2.4910 c3        1 MOL     -0.336295
     85 O15         2.0340    0.7580    3.2430 oh        1 MOL     -0.551861
     86 H35         1.7130   -0.1750   -0.2610 hn        1 MOL      0.285850
     87 H36         0.2030    1.5940    1.4250 h1        1 MOL      0.043364
     88 H37         0.2250    0.0200    3.3290 h1        1 MOL     -0.030410
     89 H38         1.7450    1.6440    3.4400 ho        1 MOL      0.323873
     90 H39         2.7500   -1.3470    2.0790 hc        1 MOL      0.079637
     91 H40         1.7190   -1.9530    3.4450 hc        1 MOL      0.079637
     92 H41         1.1540   -1.8580    1.6920 hc        1 MOL      0.079637
     93 N9         -1.7010   -0.3290    1.5860 n         1 MOL     -0.319027
     94 C29        -2.7980   -1.2600    1.4250 c3        1 MOL      0.004335
     95 C30        -3.9400   -0.7480    0.4840 c         1 MOL      0.432673
     96 O16        -4.5180   -1.5230   -0.2680 o         1 MOL     -0.485716
     97 C31        -3.3010   -1.6350    2.8150 c3        1 MOL      0.060652
     98 C32        -2.2220   -2.2320    3.7500 c3        1 MOL      0.129293
     99 C33        -4.5180   -2.5390    2.7510 c3        1 MOL     -0.380899
    100 C34        -1.6270   -3.5990    3.4210 c3        1 MOL     -0.221206
    101 H42        -1.7680    0.2520    2.4110 hn        1 MOL      0.239083
    102 H43        -2.3860   -2.1370    0.9180 h1        1 MOL      0.109139
    103 H44        -3.5650   -0.6800    3.2690 hc        1 MOL     -0.016558
    104 H45        -2.5440   -2.1930    4.7930 hc        1 MOL     -0.020043
    105 H46        -1.3930   -1.5210    3.7500 hc        1 MOL     -0.020043
    106 H47        -4.7590   -3.0430    3.6900 hc        1 MOL      0.112820
    107 H48        -5.2940   -1.7840    2.6320 hc        1 MOL      0.112820
    108 H49        -4.4900   -3.2330    1.9220 hc        1 MOL      0.112820
    109 H50        -1.2600   -4.1300    4.2990 hc        1 MOL      0.061526
    110 H51        -2.4260   -4.2240    3.0250 hc        1 MOL      0.061526
    111 H52        -0.9110   -3.4410    2.6220 hc        1 MOL      0.061526
    112 N10        -4.1260    0.5730    0.5060 n         1 MOL     -0.203108
    113 C35        -5.2590    1.2360   -0.2510 c3        1 MOL     -0.194580
    114 C36        -6.0560    2.1370    0.6860 c         1 MOL      0.691438
    115 O17        -5.5680    2.5860    1.6930 o         1 MOL     -0.543776
    116 C37        -4.7030    1.8430   -1.5360 c3        1 MOL      0.350912
    117 C38        -3.6400    2.8790   -1.2820 c3        1 MOL     -0.426015
    118 O18        -4.1410    0.8290   -2.3670 oh        1 MOL     -0.588216
    119 H53        -3.5480    1.0760    1.1600 hn        1 MOL      0.171498
    120 H54        -5.8810    0.3890   -0.5490 h1        1 MOL      0.113135
    121 H55        -5.4940    2.3210   -2.1240 h1        1 MOL      0.004313
    122 H56        -3.9950    1.1110   -3.2770 ho        1 MOL      0.404742
    123 H57        -2.8130    2.4530   -0.7050 hc        1 MOL      0.113478
    124 H58        -3.2560    3.2090   -2.2550 hc        1 MOL      0.113478
    125 H59        -4.0670    3.6190   -0.6090 hc        1 MOL      0.113478
    126 N11        -7.2710    2.4360    0.3250 n         1 MOL     -0.564708
    127 C39        -8.2980    2.9580    1.3830 c3        1 MOL     -0.023106
    128 C40        -9.5520    2.0710    1.5430 c         1 MOL      0.575035
    129 O19        -9.9930    1.7980    2.6720 o         1 MOL     -0.556640
    130 C41        -8.5560    4.4660    1.2600 c3        1 MOL      0.403138
    131 C42        -9.5870    4.9650    0.2050 c3        1 MOL     -0.257727
    132 O20        -7.3650    5.1670    0.9520 oh        1 MOL     -0.614561
    133 H60        -7.5550    2.2210   -0.6180 hn        1 MOL      0.321409
    134 H61        -7.8390    2.8260    2.3620 h1        1 MOL      0.083899
    135 H62        -8.9240    4.8070    2.2330 h1        1 MOL     -0.026196
    136 H63        -6.8170    5.2530    1.7450 ho        1 MOL      0.393320
    137 H64       -10.4990    4.4340    0.4760 hc        1 MOL      0.072600
    138 H65        -9.7030    6.0420    0.1480 hc        1 MOL      0.072600
    139 H66        -9.3090    4.4840   -0.7350 hc        1 MOL      0.072600
    140 N12       -10.1700    1.5620    0.4730 n         1 MOL     -0.487149
    141 C43       -11.4030    0.6870    0.3430 c3        1 MOL      0.231194
    142 C44       -11.1590   -0.3270   -0.7670 c         1 MOL      0.419274
    143 O21       -10.4190    0.0070   -1.6990 o         1 MOL     -0.464467
    144 C45       -12.6080    1.6110    0.1940 c3        1 MOL     -0.105059
    145 C46       -13.8800    0.8800   -0.0830 c3        1 MOL      0.217057
    146 C47       -15.2560    1.5990    0.1040 c3        1 MOL      0.028025
    147 C48       -15.3930    2.6710   -1.0150 c3        1 MOL      0.078712
    148 N13       -16.8420    3.1100   -1.2790 n4        1 MOL     -0.415046
    149 H67        -9.7340    1.8180   -0.4000 hn        1 MOL      0.243738
    150 H68       -11.6010    0.2090    1.3100 h1        1 MOL      0.028536
    151 H69       -12.4110    2.2850   -0.6320 hc        1 MOL     -0.003892
    152 H70       -12.7160    2.1600    1.1260 hc        1 MOL     -0.003892
    153 H71       -13.9560    0.0300    0.5880 hc        1 MOL     -0.029070
    154 H72       -13.8930    0.6080   -1.1390 hc        1 MOL     -0.029070
    155 H73       -15.4230    2.0720    1.0740 hc        1 MOL      0.008134
    156 H74       -15.9590    0.7630    0.0220 hc        1 MOL      0.008134
    157 H75       -15.1100    2.0920   -1.8960 hx        1 MOL      0.061470
    158 H76       -14.7170    3.5020   -0.8120 hx        1 MOL      0.061470
    159 H77       -16.8600    3.4920   -2.2110 hn        1 MOL      0.310756
    160 H78       -17.4840    2.3270   -1.3280 hn        1 MOL      0.310756
    161 H79       -17.1210    3.7670   -0.5610 hn        1 MOL      0.310756
    162 N14       -11.8700   -1.4620   -0.6250 n         1 MOL     -0.631995
    163 C49       -11.8690   -2.3800   -1.8140 c3        1 MOL      0.450158
    164 C50       -10.5010   -2.8920   -2.1190 c         1 MOL      0.292948
    165 O22       -10.0850   -2.6540   -3.2440 o         1 MOL     -0.515288
    166 C51       -12.9350   -3.4480   -1.6660 c3        1 MOL      0.075480
    167 C52       -14.3670   -2.8760   -1.9400 c3        1 MOL     -0.114744
    168 C53       -15.5010   -3.8750   -1.8870 c         1 MOL      0.674117
    169 O23       -16.6050   -3.5550   -2.4550 o         1 MOL     -0.699347
    170 O24       -15.2240   -5.0010   -1.2960 o         1 MOL     -0.699347
    171 H80       -12.3440   -1.7050    0.2410 hn        1 MOL      0.346004
    172 H81       -12.1530   -1.8760   -2.7380 h1        1 MOL     -0.004013
    173 H82       -13.0430   -3.8720   -0.6760 hc        1 MOL     -0.006175
    174 H83       -12.7670   -4.2240   -2.4090 hc        1 MOL     -0.006175
    175 H84       -14.2290   -2.4200   -2.9200 hc        1 MOL     -0.031799
    176 H85       -14.5910   -2.0690   -1.2260 hc        1 MOL     -0.031799
    177 N15        -9.7800   -3.4200   -1.1460 n         1 MOL     -0.330113
    178 C54       -10.2070   -4.0510    0.1450 c3        1 MOL     -0.121019
    179 H86       -10.0580   -5.1290    0.0880 h1        1 MOL      0.071484
    180 H87        -9.6120   -3.6440    0.9620 h1        1 MOL      0.071484
    181 H88       -11.2610   -3.8400    0.3210 h1        1 MOL      0.071484
    182 H89        -8.7870   -3.3520   -1.3440 hn        1 MOL      0.299750
    183 Ca1         7.1220   -4.2720   -1.6590 Ca        1 MOL      1.793263
    184 O25         5.9840   -6.3860   -0.6360 oh        1 MOL     -0.831964
    185 O26         5.1670   -2.6240   -1.1580 oh        1 MOL     -0.831964
    186 H90         5.0810   -6.4770   -0.3290 ho        1 MOL      0.412039
    187 H91         5.2610   -2.0970   -0.3640 ho        1 MOL      0.412039
    188 H92         6.1320   -7.1500   -1.1900 ho        1 MOL      0.412039
    189 H93         4.7550   -2.0320   -1.7880 ho        1 MOL      0.412039
    190 O27         9.4180   -5.6470   -0.6110 oh        1 MOL     -0.831964
    191 H94        10.2620   -5.5010   -1.0410 ho        1 MOL      0.412039
    192 H95         9.5120   -5.2490    0.2550 ho        1 MOL      0.412039
    193 O28         7.1490   -2.9550   -4.0510 oh        1 MOL     -0.831964
    194 H96         6.3630   -2.4490   -4.2310 ho        1 MOL      0.412039
    195 H97         7.8230   -2.5780   -4.6100 ho        1 MOL      0.412039
    196 O29         5.0130   -5.1990   -3.2130 oh        1 MOL     -0.831964
    197 H98         4.9040   -5.2610   -4.1620 ho        1 MOL      0.412039
    198 H99         4.2300   -5.6170   -2.8640 ho        1 MOL      0.412039
    199 O30         8.7360   -5.5430   -3.5040 oh        1 MOL     -0.831964
    200 H100        9.5840   -5.7700   -3.1320 ho        1 MOL      0.412039
    201 H101        8.9470   -5.0640   -4.3100 ho        1 MOL      0.412039
@<TRIPOS>BOND
     1    1    2 1   
     2    1    4 1   
     3    1    5 1   
     4    1    6 1   
     5    2    3 2   
     6    2    7 1   
     7    7    8 1   
     8    7   15 1   
     9    8    9 1   
    10    8   11 1   
    11    8   16 1   
    12    9   10 2   
    13    9   19 1   
    14   11   12 1   
    15   11   17 1   
    16   11   18 1   
    17   12   13 1   
    18   12   14 1   
    19   19   20 1   
    20   19   28 1   
    21   20   21 1   
    22   20   23 1   
    23   20   29 1   
    24   21   22 2   
    25   21   41 1   
    26   23   24 1   
    27   23   30 1   
    28   23   31 1   
    29   24   25 1   
    30   24   32 1   
    31   24   33 1   
    32   25   26 1   
    33   25   34 1   
    34   25   35 1   
    35   26   27 1   
    36   26   36 1   
    37   26   37 1   
    38   27   38 1   
    39   27   39 1   
    40   27   40 1   
    41   41   42 1   
    42   41   49 1   
    43   42   43 1   
    44   42   45 1   
    45   42   50 1   
    46   43   44 2   
    47   43   53 1   
    48   45   46 1   
    49   45   51 1   
    50   45   52 1   
    51   46   47 1   
    52   46   48 1   
    53   53   54 1   
    54   53   57 1   
    55   54   55 1   
    56   54   58 1   
    57   54   59 1   
    58   55   56 2   
    59   55   60 1   
    60   60   61 1   
    61   60   68 1   
    62   61   62 1   
    63   61   64 1   
    64   61   69 1   
    65   62   63 2   
    66   62   72 1   
    67   64   65 1   
    68   64   70 1   
    69   64   71 1   
    70   65   66 1   
    71   65   67 1   
    72   72   73 1   
    73   72   76 1   
    74   73   74 1   
    75   73   77 1   
    76   73   78 1   
    77   74   75 2   
    78   74   79 1   
    79   79   80 1   
    80   79   86 1   
    81   80   81 1   
    82   80   83 1   
    83   80   87 1   
    84   81   82 2   
    85   81   93 1   
    86   83   84 1   
    87   83   85 1   
    88   83   88 1   
    89   84   90 1   
    90   84   91 1   
    91   84   92 1   
    92   85   89 1   
    93   93   94 1   
    94   93  101 1   
    95   94   95 1   
    96   94   97 1   
    97   94  102 1   
    98   95   96 2   
    99   95  112 1   
   100   97   98 1   
   101   97   99 1   
   102   97  103 1   
   103   98  100 1   
   104   98  104 1   
   105   98  105 1   
   106   99  106 1   
   107   99  107 1   
   108   99  108 1   
   109  100  109 1   
   110  100  110 1   
   111  100  111 1   
   112  112  113 1   
   113  112  119 1   
   114  113  114 1   
   115  113  116 1   
   116  113  120 1   
   117  114  115 2   
   118  114  126 1   
   119  116  117 1   
   120  116  118 1   
   121  116  121 1   
   122  117  123 1   
   123  117  124 1   
   124  117  125 1   
   125  118  122 1   
   126  126  127 1   
   127  126  133 1   
   128  127  128 1   
   129  127  130 1   
   130  127  134 1   
   131  128  129 2   
   132  128  140 1   
   133  130  131 1   
   134  130  132 1   
   135  130  135 1   
   136  131  137 1   
   137  131  138 1   
   138  131  139 1   
   139  132  136 1   
   140  140  141 1   
   141  140  149 1   
   142  141  142 1   
   143  141  144 1   
   144  141  150 1   
   145  142  143 2   
   146  142  162 1   
   147  144  145 1   
   148  144  151 1   
   149  144  152 1   
   150  145  146 1   
   151  145  153 1   
   152  145  154 1   
   153  146  147 1   
   154  146  155 1   
   155  146  156 1   
   156  147  148 1   
   157  147  157 1   
   158  147  158 1   
   159  148  159 1   
   160  148  160 1   
   161  148  161 1   
   162  162  163 1   
   163  162  171 1   
   164  163  164 1   
   165  163  166 1   
   166  163  172 1   
   167  164  165 2   
   168  164  177 1   
   169  166  167 1   
   170  166  173 1   
   171  166  174 1   
   172  167  168 1   
   173  167  175 1   
   174  167  176 1   
   175  168  169 1   
   176  168  170 1   
   177  177  178 1   
   178  177  182 1   
   179  178  179 1   
   180  178  180 1   
   181  178  181 1   
   182  184  186 1   
   183  184  188 1   
   184  185  187 1   
   185  185  189 1   
   186  190  191 1   
   187  190  192 1   
   188  193  194 1   
   189  193  195 1   
   190  196  197 1   
   191  196  198 1   
   192  199  200 1   
   193  199  201 1   
@<TRIPOS>SUBSTRUCTURE
     1 MOL         1 TEMP              0 ****  ****    0 ROOT
