@<TRIPOS>MOLECULE
MOL
  192   187     1     0     0
SMALL
resp


@<TRIPOS>ATOM
      1 C1         11.2790    0.5140    1.0110 c3        1 MOL     -0.538003
      2 C2         10.0000   -0.2600    0.6740 c         1 MOL      0.642302
      3 O1          9.2870   -0.7720    1.5800 o         1 MOL     -0.604309
      4 H1         11.6460    0.2000    1.9880 hc        1 MOL      0.151023
      5 H2         12.0380    0.3100    0.2560 hc        1 MOL      0.151023
      6 H3         11.0630    1.5830    1.0320 hc        1 MOL      0.151023
      7 N1          9.5180   -0.1200   -0.5840 n         1 MOL     -0.526570
      8 C3          8.0970   -0.4330   -0.8480 c3        1 MOL      0.179244
      9 C4          7.7290   -1.9240   -0.9270 c         1 MOL      0.359507
     10 O2          8.2960   -2.6270   -1.7400 o         1 MOL     -0.524467
     11 C5          7.5230    0.2700   -2.0900 c3        1 MOL     -0.152855
     12 C6          7.9420    1.7200   -2.2690 c         1 MOL      0.727335
     13 O3          7.1380    2.6570   -2.0000 o         1 MOL     -0.650157
     14 O4          9.0660    2.0350   -2.7450 o         1 MOL     -0.650157
     15 H4         10.1230    0.2970   -1.2840 hn        1 MOL      0.305654
     16 H5          7.5190   -0.0230   -0.0280 h1        1 MOL      0.042836
     17 H6          6.4440    0.1950   -1.9190 hc        1 MOL      0.048429
     18 H7          7.7190   -0.3110   -2.9880 hc        1 MOL      0.048429
     19 N2          6.7150   -2.5020   -0.2360 n         1 MOL     -0.063537
     20 C7          6.1450   -3.8880   -0.3600 c3        1 MOL      0.201774
     21 C8          4.7500   -3.9130   -0.9220 c         1 MOL      0.477332
     22 O5          4.5970   -4.7800   -1.7710 o         1 MOL     -0.534593
     23 C9          6.2510   -4.5780    1.0430 c3        1 MOL     -0.375234
     24 C10         7.7700   -4.6590    1.4600 c3        1 MOL      0.142317
     25 C11         7.9780   -5.1350    2.9200 c3        1 MOL     -0.095135
     26 C12         9.4530   -5.3620    3.1770 c3        1 MOL      0.070362
     27 N3          9.6500   -5.8260    4.5560 n4        1 MOL     -0.251037
     28 H8          6.3430   -1.9020    0.5010 hn        1 MOL      0.096802
     29 H9          6.8280   -4.4120   -1.0240 h1        1 MOL      0.051603
     30 H10         5.9540   -5.6270    0.9770 hc        1 MOL      0.100118
     31 H11         5.6320   -4.0570    1.7660 hc        1 MOL      0.100118
     32 H12         8.2160   -3.6630    1.4080 hc        1 MOL      0.001255
     33 H13         8.4130   -5.2680    0.8120 hc        1 MOL      0.001255
     34 H14         7.6340   -6.1610    2.9440 hc        1 MOL      0.039716
     35 H15         7.3650   -4.6210    3.6640 hc        1 MOL      0.039716
     36 H16        10.0090   -4.4300    3.0380 hx        1 MOL      0.068903
     37 H17         9.7620   -6.1220    2.4490 hx        1 MOL      0.068903
     38 H18        10.5830   -6.1220    4.7990 hn        1 MOL      0.267412
     39 H19         9.4730   -5.0560    5.1820 hn        1 MOL      0.267412
     40 H20         9.0500   -6.6160    4.7370 hn        1 MOL      0.267412
     41 N4          3.6760   -3.1250   -0.5630 n         1 MOL     -0.435314
     42 C13         3.7240   -1.9650    0.3390 c3        1 MOL      0.035555
     43 C14         3.9290   -0.6250   -0.3640 c         1 MOL      0.002536
     44 O6          3.8510   -0.5550   -1.6100 o         1 MOL     -0.353427
     45 C15         2.4210   -2.0180    1.1800 c3        1 MOL     -0.241143
     46 C16         1.0630   -2.1100    0.4820 c         1 MOL      0.762530
     47 O7          0.8080   -1.4970   -0.5550 o         1 MOL     -0.688389
     48 O8          0.1680   -2.6740    1.1010 o         1 MOL     -0.688389
     49 H21         2.8260   -3.3740   -1.0450 hn        1 MOL      0.349561
     50 H22         4.5310   -2.0900    1.0530 h1        1 MOL      0.088376
     51 H23         2.4570   -1.0990    1.7660 hc        1 MOL      0.060895
     52 H24         2.4910   -2.9070    1.7940 hc        1 MOL      0.060895
     53 N5          4.0910    0.4530    0.3120 n         1 MOL     -0.112764
     54 C17         4.3010    1.7180   -0.3060 c3        1 MOL     -0.017952
     55 C18         2.9930    2.2820   -0.9940 c         1 MOL      0.568980
     56 O9          1.8890    1.8020   -0.8990 o         1 MOL     -0.539344
     57 H25         4.2200    0.4150    1.3150 hn        1 MOL      0.245250
     58 H26         5.1720    1.7490   -0.9540 h1        1 MOL      0.018192
     59 H27         4.4440    2.4320    0.5120 h1        1 MOL      0.018192
     60 N6          3.2220    3.3880   -1.6530 n         1 MOL     -0.480487
     61 C19         2.2120    4.3170   -2.1040 c3        1 MOL      0.434380
     62 C20         2.6450    5.8460   -1.8870 c         1 MOL      0.302586
     63 O10         3.7920    6.2240   -1.7250 o         1 MOL     -0.498402
     64 C21         1.8340    4.0430   -3.6180 c3        1 MOL     -0.349135
     65 C22         0.9240    2.8570   -3.8630 c         1 MOL      0.785420
     66 O11         0.1260    2.4930   -2.9650 o         1 MOL     -0.693837
     67 O12         0.9420    2.3840   -5.0360 o         1 MOL     -0.693837
     68 H28         4.1710    3.7160   -1.5670 hn        1 MOL      0.293919
     69 H29         1.2960    4.1670   -1.5290 h1        1 MOL     -0.051827
     70 H30         2.7240    3.7570   -4.1770 hc        1 MOL      0.081170
     71 H31         1.3180    4.9160   -4.0080 hc        1 MOL      0.081170
     72 N7          1.7410    6.8080   -1.9000 n         1 MOL     -0.286937
     73 C23         0.2450    6.8070   -1.9420 c3        1 MOL     -0.233065
     74 C24        -0.2920    6.3550   -0.5190 c         1 MOL      0.649016
     75 O13         0.2920    6.7000    0.4990 o         1 MOL     -0.521577
     76 H32         2.1840    7.7230   -1.8870 hn        1 MOL      0.282139
     77 H33        -0.0610    6.1410   -2.7520 h1        1 MOL      0.107056
     78 H34        -0.1820    7.7990   -2.0890 h1        1 MOL      0.107056
     79 N8         -1.3480    5.5490   -0.6160 n         1 MOL     -0.609808
     80 C25        -1.9640    4.8500    0.5110 c3        1 MOL     -0.009268
     81 C26        -1.1490    3.5820    1.0240 c         1 MOL      0.703835
     82 O14        -0.5650    2.8880    0.2010 o         1 MOL     -0.535079
     83 C27        -3.3950    4.5580    0.0860 c3        1 MOL      0.266237
     84 C28        -4.1460    3.9060    1.2910 c3        1 MOL     -0.209474
     85 O15        -3.5650    3.7030   -0.9840 oh        1 MOL     -0.559740
     86 H35        -1.6010    5.3770   -1.5760 hn        1 MOL      0.337474
     87 H36        -1.9320    5.5180    1.3730 h1        1 MOL      0.072014
     88 H37        -3.9600    5.4410   -0.1850 h1        1 MOL      0.032643
     89 H38        -4.4880    3.6350   -1.2360 ho        1 MOL      0.402652
     90 H39        -5.1920    3.6960    1.0290 hc        1 MOL      0.030208
     91 H40        -3.5450    3.0200    1.5210 hc        1 MOL      0.030208
     92 H41        -4.0640    4.5700    2.1420 hc        1 MOL      0.030208
     93 N9         -1.1450    3.3320    2.2910 n         1 MOL     -0.492739
     94 C29        -0.4940    2.1860    3.0480 c3        1 MOL     -0.007693
     95 C30        -1.0200    0.8890    2.5170 c         1 MOL      0.413121
     96 O16        -0.5470    0.3520    1.5050 o         1 MOL     -0.530117
     97 C31         1.0670    2.4980    2.9500 c3        1 MOL      0.504927
     98 C32         1.5860    3.9210    3.2630 c3        1 MOL     -0.432556
     99 C33         1.7080    1.3760    3.8360 c3        1 MOL     -0.502767
    100 C34         1.1110    4.4650    4.6260 c3        1 MOL     -0.097064
    101 H42        -1.4270    4.0800    2.9090 hn        1 MOL      0.297425
    102 H43        -0.7880    2.2320    4.0980 h1        1 MOL      0.025493
    103 H44         1.2790    2.2670    1.9110 hc        1 MOL     -0.145634
    104 H45         1.3270    4.6290    2.4710 hc        1 MOL      0.159284
    105 H46         2.6420    3.7610    3.4170 hc        1 MOL      0.159284
    106 H47         1.3520    0.4470    3.4020 hc        1 MOL      0.124646
    107 H48         2.7830    1.3630    3.6300 hc        1 MOL      0.124646
    108 H49         1.3850    1.5570    4.8590 hc        1 MOL      0.124646
    109 H50         1.3600    3.8130    5.4650 hc        1 MOL      0.033993
    110 H51         1.5420    5.4610    4.7540 hc        1 MOL      0.033993
    111 H52         0.0420    4.6710    4.5690 hc        1 MOL      0.033993
    112 N10        -1.9260    0.3160    3.3080 n         1 MOL     -0.287558
    113 C35        -2.5600   -1.0050    2.9690 c3        1 MOL     -0.127457
    114 C36        -4.1320   -0.9920    3.0270 c         1 MOL      0.382313
    115 O17        -4.7080   -2.1250    3.0080 o         1 MOL     -0.519447
    116 C37        -2.0480   -2.0860    3.9730 c3        1 MOL      0.508347
    117 C38        -2.4380   -1.7910    5.4500 c3        1 MOL     -0.459693
    118 O18        -0.6620   -2.1240    3.9380 oh        1 MOL     -0.643767
    119 H53        -2.2260    0.7780    4.1630 hn        1 MOL      0.269701
    120 H54        -2.4070   -1.3100    1.9350 h1        1 MOL      0.135735
    121 H55        -2.4900   -3.0380    3.6920 h1        1 MOL     -0.013096
    122 H56        -0.3180   -2.2720    3.0530 ho        1 MOL      0.377740
    123 H57        -3.5250   -1.7390    5.4330 hc        1 MOL      0.115121
    124 H58        -2.0660   -2.6530    6.0010 hc        1 MOL      0.115121
    125 H59        -1.9050   -0.8860    5.7440 hc        1 MOL      0.115121
    126 N11        -4.8510    0.1360    3.1640 n         1 MOL     -0.164311
    127 C39        -6.2820    0.2710    3.0830 c3        1 MOL     -0.057886
    128 C40        -6.9000   -0.1420    1.6680 c         1 MOL      0.348390
    129 O19        -7.3150    0.6760    0.8400 o         1 MOL     -0.484078
    130 C41        -6.7500    1.6440    3.5840 c3        1 MOL      0.530423
    131 C42        -8.2280    1.5980    3.8150 c3        1 MOL     -0.375645
    132 O20        -6.1480    2.0110    4.7810 oh        1 MOL     -0.677577
    133 H60        -4.2970    0.9630    3.3010 hn        1 MOL      0.167392
    134 H61        -6.7710   -0.4940    3.6920 h1        1 MOL      0.071836
    135 H62        -6.5500    2.4410    2.8640 h1        1 MOL     -0.055783
    136 H63        -6.4140    2.9230    4.9380 ho        1 MOL      0.415311
    137 H64        -8.6760    2.5580    3.5500 hc        1 MOL      0.084993
    138 H65        -8.7260    0.7540    3.3480 hc        1 MOL      0.084993
    139 H66        -8.3870    1.5310    4.8920 hc        1 MOL      0.084993
    140 N12        -6.9140   -1.5010    1.5300 n         1 MOL     -0.310848
    141 C43        -6.7550   -2.3050    0.2850 c3        1 MOL      0.059359
    142 C44        -5.5330   -1.8750   -0.5890 c         1 MOL      0.466946
    143 O21        -4.8570   -0.8800   -0.3520 o         1 MOL     -0.451609
    144 C45        -8.0430   -2.3090   -0.5200 c3        1 MOL     -0.037614
    145 C46        -9.2190   -2.7580    0.3150 c3        1 MOL      0.007250
    146 C47       -10.6460   -2.8340   -0.3640 c3        1 MOL      0.016933
    147 C48       -11.0020   -1.5570   -1.1800 c3        1 MOL      0.035952
    148 N13       -12.4130   -1.4770   -1.6080 n4        1 MOL     -0.244203
    149 H67        -6.7260   -1.9860    2.3990 hn        1 MOL      0.245196
    150 H68        -6.6210   -3.3500    0.5670 h1        1 MOL      0.069230
    151 H69        -7.9450   -2.9060   -1.4260 hc        1 MOL      0.000431
    152 H70        -8.2860   -1.3000   -0.8290 hc        1 MOL      0.000431
    153 H71        -9.2620   -2.1030    1.1770 hc        1 MOL      0.012368
    154 H72        -8.9250   -3.6870    0.8000 hc        1 MOL      0.012368
    155 H73       -11.3560   -2.9180    0.4560 hc        1 MOL      0.012181
    156 H74       -10.7480   -3.7590   -0.9290 hc        1 MOL      0.012181
    157 H75       -10.3160   -1.5500   -2.0260 hx        1 MOL      0.090641
    158 H76       -10.7790   -0.7040   -0.5410 hx        1 MOL      0.090641
    159 H77       -12.6660   -2.1270   -2.3390 hn        1 MOL      0.233930
    160 H78       -12.9910   -1.6910   -0.8110 hn        1 MOL      0.233930
    161 H79       -12.6730   -0.5520   -1.9230 hn        1 MOL      0.233930
    162 N14        -5.2120   -2.7590   -1.5200 n         1 MOL     -0.419141
    163 C49        -4.0500   -2.6590   -2.4340 c3        1 MOL      0.067972
    164 C50        -2.6090   -2.4430   -1.7730 c         1 MOL      0.349853
    165 O22        -1.8950   -1.4860   -2.0340 o         1 MOL     -0.531421
    166 C51        -4.1790   -3.7940   -3.4470 c3        1 MOL      0.005899
    167 C52        -5.0690   -3.4300   -4.6660 c3        1 MOL     -0.203242
    168 C53        -5.1780   -4.6730   -5.4930 c         1 MOL      0.626856
    169 O23        -4.5570   -4.7460   -6.5830 o         1 MOL     -0.636423
    170 O24        -5.6890   -5.6860   -4.9780 o         1 MOL     -0.636423
    171 H80        -5.7190   -3.6310   -1.5350 hn        1 MOL      0.292691
    172 H81        -4.2400   -1.7500   -2.9980 h1        1 MOL      0.069213
    173 H82        -4.5270   -4.6490   -2.8730 hc        1 MOL      0.059164
    174 H83        -3.1580   -3.9710   -3.7920 hc        1 MOL      0.059164
    175 H84        -4.7260   -2.5670   -5.2410 hc        1 MOL      0.035313
    176 H85        -6.0380   -3.1110   -4.3090 hc        1 MOL      0.035313
    177 N15        -2.1980   -3.2460   -0.8450 n         1 MOL     -0.200586
    178 C54        -2.6040   -4.5910   -0.4420 c3        1 MOL      0.024833
    179 H86        -3.0040   -4.5610    0.5710 h1        1 MOL      0.019338
    180 H87        -3.3700   -4.9600   -1.1240 h1        1 MOL      0.019338
    181 H88        -1.7400   -5.2560   -0.4710 h1        1 MOL      0.019338
    182 H89        -1.3250   -2.9610   -0.4260 hn        1 MOL      0.278582
    183 Ca1        -0.3920    0.5870   -1.2250 Ca        1 MOL      1.768121
    184 O25        -2.5630    1.4390   -3.1180 oh        1 MOL     -0.860678
    185 H90        -2.7820    2.2780   -3.5180 ho        1 MOL      0.397704
    186 H91        -3.2540    0.8480   -3.4290 ho        1 MOL      0.397704
    187 O26         0.4050   -0.1490   -3.8000 oh        1 MOL     -0.860678
    188 H92         0.4090    0.6510   -4.3090 ho        1 MOL      0.397704
    189 H93         0.2210   -0.8450   -4.4380 ho        1 MOL      0.397704
    190 O27        -2.8710    1.0310   -0.1860 oh        1 MOL     -0.860678
    191 H94        -3.5820    0.3920   -0.2850 ho        1 MOL      0.397704
    192 H95        -3.2950    1.8710   -0.3250 ho        1 MOL      0.397704
@<TRIPOS>BOND
     1    1    2 1   
     2    1    4 1   
     3    1    5 1   
     4    1    6 1   
     5    2    3 2   
     6    2    7 1   
     7    7    8 1   
     8    7   15 1   
     9    8    9 1   
    10    8   11 1   
    11    8   16 1   
    12    9   10 2   
    13    9   19 1   
    14   11   12 1   
    15   11   17 1   
    16   11   18 1   
    17   12   13 1   
    18   12   14 1   
    19   19   20 1   
    20   19   28 1   
    21   20   21 1   
    22   20   23 1   
    23   20   29 1   
    24   21   22 2   
    25   21   41 1   
    26   23   24 1   
    27   23   30 1   
    28   23   31 1   
    29   24   25 1   
    30   24   32 1   
    31   24   33 1   
    32   25   26 1   
    33   25   34 1   
    34   25   35 1   
    35   26   27 1   
    36   26   36 1   
    37   26   37 1   
    38   27   38 1   
    39   27   39 1   
    40   27   40 1   
    41   41   42 1   
    42   41   49 1   
    43   42   43 1   
    44   42   45 1   
    45   42   50 1   
    46   43   44 2   
    47   43   53 1   
    48   45   46 1   
    49   45   51 1   
    50   45   52 1   
    51   46   47 1   
    52   46   48 1   
    53   53   54 1   
    54   53   57 1   
    55   54   55 1   
    56   54   58 1   
    57   54   59 1   
    58   55   56 2   
    59   55   60 1   
    60   60   61 1   
    61   60   68 1   
    62   61   62 1   
    63   61   64 1   
    64   61   69 1   
    65   62   63 2   
    66   62   72 1   
    67   64   65 1   
    68   64   70 1   
    69   64   71 1   
    70   65   66 1   
    71   65   67 1   
    72   72   73 1   
    73   72   76 1   
    74   73   74 1   
    75   73   77 1   
    76   73   78 1   
    77   74   75 2   
    78   74   79 1   
    79   79   80 1   
    80   79   86 1   
    81   80   81 1   
    82   80   83 1   
    83   80   87 1   
    84   81   82 2   
    85   81   93 1   
    86   83   84 1   
    87   83   85 1   
    88   83   88 1   
    89   84   90 1   
    90   84   91 1   
    91   84   92 1   
    92   85   89 1   
    93   93   94 1   
    94   93  101 1   
    95   94   95 1   
    96   94   97 1   
    97   94  102 1   
    98   95   96 2   
    99   95  112 1   
   100   97   98 1   
   101   97   99 1   
   102   97  103 1   
   103   98  100 1   
   104   98  104 1   
   105   98  105 1   
   106   99  106 1   
   107   99  107 1   
   108   99  108 1   
   109  100  109 1   
   110  100  110 1   
   111  100  111 1   
   112  112  113 1   
   113  112  119 1   
   114  113  114 1   
   115  113  116 1   
   116  113  120 1   
   117  114  115 2   
   118  114  126 1   
   119  116  117 1   
   120  116  118 1   
   121  116  121 1   
   122  117  123 1   
   123  117  124 1   
   124  117  125 1   
   125  118  122 1   
   126  126  127 1   
   127  126  133 1   
   128  127  128 1   
   129  127  130 1   
   130  127  134 1   
   131  128  129 2   
   132  128  140 1   
   133  130  131 1   
   134  130  132 1   
   135  130  135 1   
   136  131  137 1   
   137  131  138 1   
   138  131  139 1   
   139  132  136 1   
   140  140  141 1   
   141  140  149 1   
   142  141  142 1   
   143  141  144 1   
   144  141  150 1   
   145  142  143 2   
   146  142  162 1   
   147  144  145 1   
   148  144  151 1   
   149  144  152 1   
   150  145  146 1   
   151  145  153 1   
   152  145  154 1   
   153  146  147 1   
   154  146  155 1   
   155  146  156 1   
   156  147  148 1   
   157  147  157 1   
   158  147  158 1   
   159  148  159 1   
   160  148  160 1   
   161  148  161 1   
   162  162  163 1   
   163  162  171 1   
   164  163  164 1   
   165  163  166 1   
   166  163  172 1   
   167  164  165 2   
   168  164  177 1   
   169  166  167 1   
   170  166  173 1   
   171  166  174 1   
   172  167  168 1   
   173  167  175 1   
   174  167  176 1   
   175  168  169 1   
   176  168  170 1   
   177  177  178 1   
   178  177  182 1   
   179  178  179 1   
   180  178  180 1   
   181  178  181 1   
   182  184  185 1   
   183  184  186 1   
   184  187  188 1   
   185  187  189 1   
   186  190  191 1   
   187  190  192 1   
@<TRIPOS>SUBSTRUCTURE
     1 MOL         1 TEMP              0 ****  ****    0 ROOT
