@<TRIPOS>MOLECULE
MOL
  192   187     1     0     0
SMALL
resp


@<TRIPOS>ATOM
      1 C1         -5.0100    6.5670    0.7130 c3        1 MOL     -0.310775
      2 C2         -4.7990    5.0420    0.8150 c         1 MOL      0.715631
      3 O1         -4.6390    4.5140    1.9360 o         1 MOL     -0.612083
      4 H1         -4.8410    7.0220    1.6890 hc        1 MOL      0.083960
      5 H2         -4.3070    6.9850   -0.0080 hc        1 MOL      0.083960
      6 H3         -6.0290    6.7740    0.3880 hc        1 MOL      0.083960
      7 N1         -4.7260    4.3230   -0.3110 n         1 MOL     -0.608674
      8 C3         -4.3470    2.8910   -0.4290 c3        1 MOL      0.083313
      9 C4         -2.8210    2.5770   -0.5730 c         1 MOL      0.326282
     10 O2         -2.5240    1.4560   -0.9930 o         1 MOL     -0.394539
     11 C5         -5.1350    2.2020   -1.5930 c3        1 MOL     -0.027724
     12 C6         -5.0060    3.0140   -2.8590 c         1 MOL      0.674962
     13 O3         -4.4670    2.5150   -3.8440 o         1 MOL     -0.692604
     14 O4         -5.3000    4.1950   -2.9180 o         1 MOL     -0.692604
     15 H4         -4.8170    4.8930   -1.1390 hn        1 MOL      0.340233
     16 H5         -4.6830    2.3550    0.4630 h1        1 MOL      0.115100
     17 H6         -6.1820    2.1810   -1.2990 hc        1 MOL      0.000408
     18 H7         -4.7930    1.1840   -1.7690 hc        1 MOL      0.000408
     19 N2         -1.8770    3.5520   -0.3960 n         1 MOL     -0.091201
     20 C7         -0.4560    3.4800   -0.5860 c3        1 MOL     -0.023304
     21 C8          0.2410    3.3600    0.7790 c         1 MOL      0.446495
     22 O5          0.0050    4.1940    1.6750 o         1 MOL     -0.529355
     23 C9          0.1120    4.7030   -1.2670 c3        1 MOL      0.054332
     24 C10        -0.4130    4.8390   -2.6610 c3        1 MOL     -0.151869
     25 C11         0.1140    3.7480   -3.6000 c3        1 MOL     -0.027549
     26 C12        -0.2120    4.0270   -5.0660 c3        1 MOL     -0.059920
     27 N3         -0.0800    2.7370   -5.8230 n4        1 MOL     -0.295533
     28 H8         -2.3080    4.3880   -0.0240 hn        1 MOL      0.172027
     29 H9         -0.1520    2.5280   -1.0370 h1        1 MOL      0.023807
     30 H10         1.1960    4.5770   -1.3470 hc        1 MOL      0.029544
     31 H11        -0.0480    5.5700   -0.6110 hc        1 MOL      0.029544
     32 H12        -0.1050    5.8020   -3.0530 hc        1 MOL      0.053572
     33 H13        -1.5070    4.8680   -2.6180 hc        1 MOL      0.053572
     34 H14        -0.3270    2.8030   -3.2880 hc        1 MOL      0.073291
     35 H15         1.1870    3.5720   -3.5250 hc        1 MOL      0.073291
     36 H16         0.3420    4.8190   -5.5560 hx        1 MOL      0.114132
     37 H17        -1.2870    4.2430   -5.1000 hx        1 MOL      0.114132
     38 H18        -0.7680    2.0230   -5.6410 hn        1 MOL      0.307279
     39 H19        -0.0160    2.9240   -6.8180 hn        1 MOL      0.307279
     40 H20         0.8290    2.3730   -5.5950 hn        1 MOL      0.307279
     41 N4          1.2320    2.4300    1.0740 n         1 MOL     -0.318789
     42 C13         1.8160    1.3520    0.2590 c3        1 MOL     -0.032343
     43 C14         2.2650    1.8770   -1.1430 c         1 MOL      0.589728
     44 O6          1.7180    1.5420   -2.1710 o         1 MOL     -0.616374
     45 C15         0.8570    0.1610    0.2470 c3        1 MOL      0.288000
     46 C16         0.3880   -0.2050    1.6120 c         1 MOL      0.765900
     47 O7         -0.7740    0.2490    1.9670 o         1 MOL     -0.853349
     48 O8          1.0970   -0.6630    2.5650 o         1 MOL     -0.853349
     49 H21         1.7550    2.6020    1.9180 hn        1 MOL      0.253511
     50 H22         2.7320    0.9900    0.7290 h1        1 MOL      0.065295
     51 H23         1.4240   -0.6780   -0.1480 hc        1 MOL     -0.068590
     52 H24        -0.0100    0.3340   -0.3880 hc        1 MOL     -0.068590
     53 N5          3.2630    2.7830   -1.1140 n         1 MOL     -0.465643
     54 C17         4.3730    2.7530   -0.1530 c3        1 MOL     -0.022409
     55 C18         5.5500    3.7900   -0.5820 c         1 MOL      0.484446
     56 O9          5.3130    4.5310   -1.4900 o         1 MOL     -0.537309
     57 H25         3.5450    3.1780   -2.0100 hn        1 MOL      0.305248
     58 H26         4.7620    1.7360   -0.1180 h1        1 MOL      0.068539
     59 H27         4.1080    2.9610    0.8810 h1        1 MOL      0.068539
     60 N6          6.5990    3.9570    0.1970 n         1 MOL     -0.310082
     61 C19         6.9730    3.1470    1.3790 c3        1 MOL     -0.099562
     62 C20         7.7320    1.8580    1.0370 c         1 MOL      0.581283
     63 O10         7.9430    1.5440   -0.1330 o         1 MOL     -0.525277
     64 C21         7.8400    4.0640    2.3060 c3        1 MOL     -0.272810
     65 C22         9.0140    4.6330    1.5670 c         1 MOL      0.808672
     66 O11        10.0630    4.0150    1.7350 o         1 MOL     -0.718533
     67 O12         8.9040    5.6660    0.8900 o         1 MOL     -0.718533
     68 H28         7.2940    4.6370   -0.0700 hn        1 MOL      0.282149
     69 H29         6.0640    2.9420    1.9390 h1        1 MOL      0.054631
     70 H30         8.1100    3.5240    3.2140 hc        1 MOL      0.043702
     71 H31         7.1590    4.8570    2.5920 hc        1 MOL      0.043702
     72 N7          8.2290    1.1700    2.0200 n         1 MOL     -0.209803
     73 C23         8.9740   -0.0850    1.8500 c3        1 MOL     -0.294016
     74 C24         8.1000   -1.2960    1.4870 c         1 MOL      0.629589
     75 O13         8.6530   -2.3280    1.1510 o         1 MOL     -0.583897
     76 H32         8.1460    1.5490    2.9570 hn        1 MOL      0.232277
     77 H33         9.3810   -0.4120    2.8190 h1        1 MOL      0.155666
     78 H34         9.7140   -0.0050    1.0570 h1        1 MOL      0.155666
     79 N8          6.7760   -1.2100    1.4280 n         1 MOL     -0.465079
     80 C25         5.9180   -2.3180    1.0040 c3        1 MOL      0.311930
     81 C26         5.2460   -1.9700   -0.3180 c         1 MOL      0.552828
     82 O14         4.9380   -0.7580   -0.4800 o         1 MOL     -0.527735
     83 C27         4.8880   -2.5900    2.1080 c3        1 MOL      0.044784
     84 C28         5.3130   -3.7380    3.0100 c3        1 MOL     -0.390283
     85 O15         3.6670   -2.9930    1.5060 oh        1 MOL     -0.551406
     86 H35         6.3900   -0.3050    1.6600 hn        1 MOL      0.141249
     87 H36         6.4730   -3.2310    0.8170 h1        1 MOL      0.016207
     88 H37         4.6890   -1.7100    2.7140 h1        1 MOL      0.111894
     89 H38         3.0720   -3.2930    2.2070 ho        1 MOL      0.424008
     90 H39         4.5300   -3.9330    3.7500 hc        1 MOL      0.108190
     91 H40         5.4970   -4.6910    2.5110 hc        1 MOL      0.108190
     92 H41         6.2080   -3.4900    3.5830 hc        1 MOL      0.108190
     93 N9          4.9760   -2.9060   -1.2060 n         1 MOL     -0.498169
     94 C29         4.1620   -2.7120   -2.3920 c3        1 MOL     -0.109385
     95 C30         2.7630   -3.2670   -2.1560 c         1 MOL      0.361745
     96 O16         1.9770   -3.2750   -3.0910 o         1 MOL     -0.568934
     97 C31         4.7750   -3.2830   -3.6820 c3        1 MOL      0.219473
     98 C32         4.9940   -4.8170   -3.5530 c3        1 MOL     -0.006970
     99 C33         6.1020   -2.6390   -3.9470 c3        1 MOL     -0.235156
    100 C34         5.6370   -5.5670   -4.7540 c3        1 MOL     -0.071536
    101 H42         5.3510   -3.8250   -1.0090 hn        1 MOL      0.309386
    102 H43         4.0560   -1.6380   -2.5440 h1        1 MOL      0.182752
    103 H44         4.1300   -3.0450   -4.5320 hc        1 MOL      0.001952
    104 H45         4.0640   -5.3470   -3.3760 hc        1 MOL     -0.004989
    105 H46         5.5730   -4.9130   -2.6380 hc        1 MOL     -0.004989
    106 H47         5.9490   -1.5600   -4.0280 hc        1 MOL      0.060390
    107 H48         6.7650   -3.0280   -3.1740 hc        1 MOL      0.060390
    108 H49         6.5310   -3.0520   -4.8640 hc        1 MOL      0.060390
    109 H50         5.9020   -6.5840   -4.4710 hc        1 MOL      0.024389
    110 H51         5.0360   -5.5620   -5.6570 hc        1 MOL      0.024389
    111 H52         6.5510   -5.1000   -5.1240 hc        1 MOL      0.024389
    112 N10         2.3810   -3.6460   -0.9340 n         1 MOL      0.032358
    113 C35         1.1580   -4.4630   -0.6460 c3        1 MOL     -0.259266
    114 C36        -0.1060   -3.6140   -0.4840 c         1 MOL      0.841006
    115 O17        -0.2680   -2.9960    0.6250 o         1 MOL     -0.754262
    116 C37         1.3900   -5.3070    0.6120 c3        1 MOL      0.305966
    117 C38         2.6460   -6.1980    0.4620 c3        1 MOL     -0.187235
    118 O18         0.4230   -6.3190    0.6280 oh        1 MOL     -0.605265
    119 H53         2.9940   -3.6330   -0.1320 hn        1 MOL      0.126872
    120 H54         1.0360   -5.1170   -1.5030 h1        1 MOL      0.139890
    121 H55         1.4420   -4.7280    1.5270 h1        1 MOL     -0.011218
    122 H56         0.1110   -6.5650    1.4990 ho        1 MOL      0.395689
    123 H57         2.8630   -6.7680    1.3630 hc        1 MOL      0.050506
    124 H58         2.6190   -6.8770   -0.3900 hc        1 MOL      0.050506
    125 H59         3.5430   -5.5970    0.3170 hc        1 MOL      0.050506
    126 N11        -0.8050   -3.3500   -1.5570 n         1 MOL     -0.680681
    127 C39        -1.9600   -2.3920   -1.5610 c3        1 MOL      0.070248
    128 C40        -3.2890   -3.0980   -1.3310 c         1 MOL      0.709125
    129 O19        -3.2970   -4.3180   -1.6610 o         1 MOL     -0.580463
    130 C41        -2.1020   -1.5060   -2.8600 c3        1 MOL      0.410808
    131 C42        -0.7420   -0.7930   -3.0930 c3        1 MOL     -0.319609
    132 O20        -3.1990   -0.5760   -2.6500 oh        1 MOL     -0.596568
    133 H60        -0.4380   -3.6460   -2.4430 hn        1 MOL      0.351668
    134 H61        -1.8150   -1.6980   -0.7320 h1        1 MOL      0.122664
    135 H62        -2.2930   -2.1480   -3.7200 h1        1 MOL     -0.013313
    136 H63        -2.8360    0.1920   -2.2040 ho        1 MOL      0.237954
    137 H64         0.1240   -1.4440   -3.0380 hc        1 MOL      0.077060
    138 H65        -0.8490   -0.3090   -4.0630 hc        1 MOL      0.077060
    139 H66        -0.7340    0.1040   -2.4610 hc        1 MOL      0.077060
    140 N12        -4.3330   -2.4260   -0.8890 n         1 MOL     -0.589416
    141 C43        -5.7040   -3.0170   -0.8410 c3        1 MOL     -0.222174
    142 C44        -6.4290   -2.5820    0.4470 c         1 MOL      0.740293
    143 O21        -7.4130   -3.2400    0.7040 o         1 MOL     -0.585148
    144 C45        -6.4810   -2.7810   -2.1930 c3        1 MOL     -0.068977
    145 C46        -6.9600   -1.2710   -2.2750 c3        1 MOL     -0.030253
    146 C47        -7.4570   -0.8970   -3.6050 c3        1 MOL     -0.217770
    147 C48        -6.4890   -0.8790   -4.7890 c3        1 MOL     -0.124414
    148 N13        -5.2480   -0.0930   -4.6560 n4        1 MOL     -0.094474
    149 H67        -4.2120   -1.4350   -0.7570 hn        1 MOL      0.311760
    150 H68        -5.5820   -4.1040   -0.8660 h1        1 MOL      0.166267
    151 H69        -7.2680   -3.5320   -2.2720 hc        1 MOL      0.075161
    152 H70        -5.8020   -2.9190   -3.0330 hc        1 MOL      0.075161
    153 H71        -6.0580   -0.7150   -2.0190 hc        1 MOL      0.058867
    154 H72        -7.7090   -1.0530   -1.5160 hc        1 MOL      0.058867
    155 H73        -7.8760    0.1060   -3.6240 hc        1 MOL      0.114800
    156 H74        -8.2170   -1.6570   -3.8050 hc        1 MOL      0.114800
    157 H75        -7.0680   -0.4350   -5.5980 hx        1 MOL      0.097548
    158 H76        -6.1800   -1.9020   -5.0070 hx        1 MOL      0.097548
    159 H77        -5.3290    0.8800   -4.3950 hn        1 MOL      0.231079
    160 H78        -4.7170   -0.4530   -3.8790 hn        1 MOL      0.231079
    161 H79        -4.7280   -0.0550   -5.5260 hn        1 MOL      0.231079
    162 N14        -6.1320   -1.4680    1.1210 n         1 MOL     -0.321965
    163 C49        -6.8990   -1.0180    2.2600 c3        1 MOL     -0.221029
    164 C50        -7.6400    0.2500    1.9220 c         1 MOL      0.505768
    165 O22        -7.0960    1.0360    1.1020 o         1 MOL     -0.504507
    166 C51        -5.9620   -0.8110    3.4300 c3        1 MOL     -0.108469
    167 C52        -5.4150   -2.1340    4.0420 c3        1 MOL      0.146317
    168 C53        -4.2930   -1.8910    5.0830 c         1 MOL      0.499368
    169 O23        -3.2920   -1.3030    4.7010 o         1 MOL     -0.680554
    170 O24        -4.4070   -2.3240    6.2530 o         1 MOL     -0.680554
    171 H80        -5.2250   -1.0730    0.9370 hn        1 MOL      0.249720
    172 H81        -7.6120   -1.7860    2.5710 h1        1 MOL      0.116750
    173 H82        -6.4860   -0.2910    4.2380 hc        1 MOL      0.055077
    174 H83        -5.0740   -0.2140    3.2280 hc        1 MOL      0.055077
    175 H84        -5.1420   -2.8820    3.2960 hc        1 MOL     -0.018773
    176 H85        -6.2370   -2.6920    4.5040 hc        1 MOL     -0.018773
    177 N15        -8.8230    0.4870    2.4180 n         1 MOL     -0.309787
    178 C54        -9.7750    1.5480    2.0050 c3        1 MOL     -0.091810
    179 H86        -9.6940    2.3940    2.6870 h1        1 MOL      0.084146
    180 H87        -9.5390    1.8740    0.9920 h1        1 MOL      0.084146
    181 H88       -10.7920    1.1550    2.0340 h1        1 MOL      0.084146
    182 H89        -9.0820   -0.2040    3.1000 hn        1 MOL      0.263015
    183 Ca1        -0.9280   -0.5270    4.5200 Ca        1 MOL      1.752597
    184 O25        -1.4450   -2.8100    2.9820 oh        1 MOL     -0.873276
    185 H90        -1.1810   -3.0650    2.1060 ho        1 MOL      0.434891
    186 H91        -1.2980   -3.5850    3.5220 ho        1 MOL      0.434891
    187 O26        -1.9590    0.7820    6.8760 oh        1 MOL     -0.873276
    188 H92        -2.8730    1.0140    6.7120 ho        1 MOL      0.434891
    189 H93        -1.8470    0.9050    7.8150 ho        1 MOL      0.434891
    190 O27        -2.3660    1.8340    4.0140 oh        1 MOL     -0.873276
    191 H94        -3.3180    1.8140    3.9200 ho        1 MOL      0.434891
    192 H95        -2.1110    2.6730    3.6340 ho        1 MOL      0.434891
@<TRIPOS>BOND
     1    1    2 1   
     2    1    4 1   
     3    1    5 1   
     4    1    6 1   
     5    2    3 2   
     6    2    7 1   
     7    7    8 1   
     8    7   15 1   
     9    8    9 1   
    10    8   11 1   
    11    8   16 1   
    12    9   10 2   
    13    9   19 1   
    14   11   12 1   
    15   11   17 1   
    16   11   18 1   
    17   12   13 1   
    18   12   14 1   
    19   19   20 1   
    20   19   28 1   
    21   20   21 1   
    22   20   23 1   
    23   20   29 1   
    24   21   22 2   
    25   21   41 1   
    26   23   24 1   
    27   23   30 1   
    28   23   31 1   
    29   24   25 1   
    30   24   32 1   
    31   24   33 1   
    32   25   26 1   
    33   25   34 1   
    34   25   35 1   
    35   26   27 1   
    36   26   36 1   
    37   26   37 1   
    38   27   38 1   
    39   27   39 1   
    40   27   40 1   
    41   41   42 1   
    42   41   49 1   
    43   42   43 1   
    44   42   45 1   
    45   42   50 1   
    46   43   44 2   
    47   43   53 1   
    48   45   46 1   
    49   45   51 1   
    50   45   52 1   
    51   46   47 1   
    52   46   48 1   
    53   53   54 1   
    54   53   57 1   
    55   54   55 1   
    56   54   58 1   
    57   54   59 1   
    58   55   56 2   
    59   55   60 1   
    60   60   61 1   
    61   60   68 1   
    62   61   62 1   
    63   61   64 1   
    64   61   69 1   
    65   62   63 2   
    66   62   72 1   
    67   64   65 1   
    68   64   70 1   
    69   64   71 1   
    70   65   66 1   
    71   65   67 1   
    72   72   73 1   
    73   72   76 1   
    74   73   74 1   
    75   73   77 1   
    76   73   78 1   
    77   74   75 2   
    78   74   79 1   
    79   79   80 1   
    80   79   86 1   
    81   80   81 1   
    82   80   83 1   
    83   80   87 1   
    84   81   82 2   
    85   81   93 1   
    86   83   84 1   
    87   83   85 1   
    88   83   88 1   
    89   84   90 1   
    90   84   91 1   
    91   84   92 1   
    92   85   89 1   
    93   93   94 1   
    94   93  101 1   
    95   94   95 1   
    96   94   97 1   
    97   94  102 1   
    98   95   96 2   
    99   95  112 1   
   100   97   98 1   
   101   97   99 1   
   102   97  103 1   
   103   98  100 1   
   104   98  104 1   
   105   98  105 1   
   106   99  106 1   
   107   99  107 1   
   108   99  108 1   
   109  100  109 1   
   110  100  110 1   
   111  100  111 1   
   112  112  113 1   
   113  112  119 1   
   114  113  114 1   
   115  113  116 1   
   116  113  120 1   
   117  114  115 2   
   118  114  126 1   
   119  116  117 1   
   120  116  118 1   
   121  116  121 1   
   122  117  123 1   
   123  117  124 1   
   124  117  125 1   
   125  118  122 1   
   126  126  127 1   
   127  126  133 1   
   128  127  128 1   
   129  127  130 1   
   130  127  134 1   
   131  128  129 2   
   132  128  140 1   
   133  130  131 1   
   134  130  132 1   
   135  130  135 1   
   136  131  137 1   
   137  131  138 1   
   138  131  139 1   
   139  132  136 1   
   140  140  141 1   
   141  140  149 1   
   142  141  142 1   
   143  141  144 1   
   144  141  150 1   
   145  142  143 2   
   146  142  162 1   
   147  144  145 1   
   148  144  151 1   
   149  144  152 1   
   150  145  146 1   
   151  145  153 1   
   152  145  154 1   
   153  146  147 1   
   154  146  155 1   
   155  146  156 1   
   156  147  148 1   
   157  147  157 1   
   158  147  158 1   
   159  148  159 1   
   160  148  160 1   
   161  148  161 1   
   162  162  163 1   
   163  162  171 1   
   164  163  164 1   
   165  163  166 1   
   166  163  172 1   
   167  164  165 2   
   168  164  177 1   
   169  166  167 1   
   170  166  173 1   
   171  166  174 1   
   172  167  168 1   
   173  167  175 1   
   174  167  176 1   
   175  168  169 1   
   176  168  170 1   
   177  177  178 1   
   178  177  182 1   
   179  178  179 1   
   180  178  180 1   
   181  178  181 1   
   182  184  185 1   
   183  184  186 1   
   184  187  188 1   
   185  187  189 1   
   186  190  191 1   
   187  190  192 1   
@<TRIPOS>SUBSTRUCTURE
     1 MOL         1 TEMP              0 ****  ****    0 ROOT
