@<TRIPOS>MOLECULE
MOL
  198   191     1     0     0
SMALL
resp


@<TRIPOS>ATOM
      1 C1          7.0900   -2.4710   -1.2350 c3        1 MOL     -0.206976
      2 C2          5.8430   -1.5610   -1.3890 c         1 MOL      0.613309
      3 O1          5.9050   -0.5400   -1.9970 o         1 MOL     -0.511143
      4 H1          6.7840   -3.5160   -1.2830 hc        1 MOL      0.049123
      5 H2          7.7940   -2.2620   -2.0400 hc        1 MOL      0.049123
      6 H3          7.5660   -2.2750   -0.2740 hc        1 MOL      0.049123
      7 N1          4.6440   -1.9080   -0.8580 n         1 MOL     -0.437663
      8 C3          4.2290   -3.0520   -0.0170 c3        1 MOL     -0.436432
      9 C4          3.6430   -4.3200   -0.6750 c         1 MOL      0.637593
     10 O2          3.6170   -5.4410   -0.1160 o         1 MOL     -0.564575
     11 C5          3.2110   -2.5840    1.0890 c3        1 MOL     -0.268278
     12 C6          3.6270   -1.1740    1.6510 c         1 MOL      0.619755
     13 O3          3.0820   -0.1370    1.2130 o         1 MOL     -0.576200
     14 O4          4.4410   -1.0780    2.6310 o         1 MOL     -0.576200
     15 H4          4.0170   -1.1210   -0.8760 hn        1 MOL      0.257029
     16 H5          5.1310   -3.2970    0.5410 h1        1 MOL      0.174621
     17 H6          3.2240   -3.2690    1.9320 hc        1 MOL      0.108651
     18 H7          2.2120   -2.4720    0.6770 hc        1 MOL      0.108651
     19 N2          3.2790   -4.1300   -1.9460 n         1 MOL     -0.080740
     20 C7          3.1020   -5.1680   -2.9310 c3        1 MOL     -0.391684
     21 C8          1.8540   -6.0790   -2.6590 c         1 MOL      0.401865
     22 O5          1.8740   -7.3400   -2.9840 o         1 MOL     -0.563372
     23 C9          3.1940   -4.5920   -4.3890 c3        1 MOL      0.153785
     24 C10         2.0930   -3.6200   -4.8700 c3        1 MOL     -0.061253
     25 C11         4.5340   -3.9880   -4.6090 c3        1 MOL     -0.271138
     26 C12         0.7010   -4.2290   -5.1240 c3        1 MOL     -0.020215
     27 H8          3.2830   -3.1950   -2.3360 hn        1 MOL      0.305400
     28 H9          3.9640   -5.8090   -2.7590 h1        1 MOL      0.122688
     29 H10         3.1600   -5.4330   -5.0870 hc        1 MOL      0.043259
     30 H11         2.2950   -3.2800   -5.8810 hc        1 MOL     -0.002008
     31 H12         2.0260   -2.8010   -4.1630 hc        1 MOL     -0.002008
     32 H13         4.7060   -3.8250   -5.6710 hc        1 MOL      0.056808
     33 H14         4.7450   -3.1080   -3.9990 hc        1 MOL      0.056808
     34 H15         5.3890   -4.6390   -4.4640 hc        1 MOL      0.056808
     35 H16         0.7170   -5.1490   -5.7190 hc        1 MOL      0.011950
     36 H17         0.2030   -4.2980   -4.1600 hc        1 MOL      0.011950
     37 H18         0.0810   -3.5800   -5.7360 hc        1 MOL      0.011950
     38 N3          0.8190   -5.5410   -2.0610 n         1 MOL      0.066487
     39 C13        -0.3810   -6.3400   -1.5890 c3        1 MOL     -0.140549
     40 C14        -0.9520   -5.7140   -0.3400 c         1 MOL      0.513576
     41 O6         -0.5630   -4.5950   -0.0390 o         1 MOL     -0.584590
     42 C15        -1.3300   -6.3740   -2.7760 c3        1 MOL     -0.089018
     43 C16        -2.5750   -7.2670   -2.5430 c         1 MOL      0.651462
     44 O7         -3.6790   -6.7500   -2.8110 o         1 MOL     -0.672792
     45 O8         -2.3260   -8.4220   -2.0810 o         1 MOL     -0.672792
     46 H19         0.9030   -4.5960   -1.7150 hn        1 MOL      0.101603
     47 H20        -0.0760   -7.3490   -1.3210 h1        1 MOL      0.062637
     48 H21        -0.7540   -6.7300   -3.6330 hc        1 MOL      0.012302
     49 H22        -1.6470   -5.3850   -3.0990 hc        1 MOL      0.012302
     50 N4         -1.8840   -6.3940    0.2990 n         1 MOL     -0.378546
     51 C17        -2.7550   -5.8070    1.3070 c3        1 MOL      0.008873
     52 C18        -3.4730   -4.5480    0.8860 c         1 MOL      0.736771
     53 O9         -3.5450   -4.1770   -0.2560 o         1 MOL     -0.519676
     54 H23        -2.1940   -7.3170    0.0410 hn        1 MOL      0.267139
     55 H24        -2.2070   -5.6130    2.2280 h1        1 MOL      0.045097
     56 H25        -3.4470   -6.5970    1.5700 h1        1 MOL      0.045097
     57 N5         -4.1690   -4.0080    1.8590 n         1 MOL     -0.649817
     58 C19        -5.1520   -2.9700    1.7170 c3        1 MOL      0.337912
     59 C20        -6.3970   -3.3930    1.0280 c         1 MOL      0.556990
     60 O10        -6.6800   -4.5700    0.9830 o         1 MOL     -0.520145
     61 C21        -5.2960   -2.3350    3.1350 c3        1 MOL     -0.137632
     62 C22        -5.5740   -3.3350    4.1980 c         1 MOL      0.665633
     63 O11        -4.6040   -4.0590    4.6460 o         1 MOL     -0.702389
     64 O12        -6.7180   -3.3870    4.6900 o         1 MOL     -0.702389
     65 H26        -3.8850   -4.2030    2.8140 hn        1 MOL      0.235833
     66 H27        -4.6220   -2.1580    1.2250 h1        1 MOL     -0.072871
     67 H28        -6.0990   -1.5950    3.1200 hc        1 MOL      0.000273
     68 H29        -4.3050   -1.9200    3.3230 hc        1 MOL      0.000273
     69 N6         -7.1840   -2.5010    0.4040 n         1 MOL     -0.635263
     70 C23        -7.1330   -1.0600    0.6940 c3        1 MOL      0.091937
     71 C24        -8.0720   -0.2640   -0.2300 c         1 MOL      0.543917
     72 O13        -8.7190   -0.7480   -1.1250 o         1 MOL     -0.548490
     73 H30        -8.0190   -2.8080   -0.0740 hn        1 MOL      0.342386
     74 H31        -6.1390   -0.6300    0.6150 h1        1 MOL      0.098819
     75 H32        -7.4770   -0.9250    1.7140 h1        1 MOL      0.098819
     76 N7         -8.3270    0.9570    0.1530 n         1 MOL     -0.549305
     77 C25        -7.8260    1.7400    1.2600 c3        1 MOL      0.123748
     78 C26        -6.2430    1.6090    1.5860 c         1 MOL      0.481571
     79 O14        -5.8950    1.2620    2.6760 o         1 MOL     -0.513492
     80 C27        -8.6810    1.3780    2.5190 c3        1 MOL      0.026329
     81 C28        -8.6050    2.4500    3.6460 c3        1 MOL     -0.197029
     82 C29        -9.4780    3.6810    3.4990 c         1 MOL      0.651446
     83 N8         -9.6980    4.3620    4.5610 n         1 MOL     -0.779525
     84 O15        -9.8320    4.1550    2.4090 o         1 MOL     -0.578289
     85 H33        -8.8290    1.4280   -0.5870 hn        1 MOL      0.308076
     86 H34        -8.0640    2.7680    1.0130 h1        1 MOL      0.051494
     87 H35        -8.3790    0.3870    2.8680 hc        1 MOL      0.009991
     88 H36        -9.7560    1.4260    2.3310 hc        1 MOL      0.009991
     89 H37        -7.5730    2.8070    3.6600 hc        1 MOL      0.056296
     90 H38        -8.8090    2.0020    4.6190 hc        1 MOL      0.056296
     91 H39        -9.6230    3.8230    5.4240 hn        1 MOL      0.359359
     92 H40       -10.0860    5.2760    4.3990 hn        1 MOL      0.359359
     93 N9         -5.4370    1.7640    0.5630 n         1 MOL     -0.381785
     94 C30        -4.0270    1.4950    0.5970 c3        1 MOL     -0.086187
     95 C31        -3.6750    0.8470   -0.7570 c         1 MOL      0.433445
     96 O16        -4.4160    0.7790   -1.7850 o         1 MOL     -0.516895
     97 C32        -3.0450    2.6710    0.8800 c3        1 MOL      0.150866
     98 C33        -3.1000    2.8670    2.3650 c3        1 MOL     -0.280831
     99 C34        -3.3340    3.9660    0.1180 c3        1 MOL     -0.280831
    100 H41        -5.8990    1.8230   -0.3370 hn        1 MOL      0.238698
    101 H42        -3.8550    0.6720    1.2980 h1        1 MOL      0.123761
    102 H43        -2.0010    2.4950    0.6320 hc        1 MOL      0.077733
    103 H44        -2.5020    3.7460    2.5910 hc        1 MOL      0.087951
    104 H45        -4.0750    3.2060    2.7130 hc        1 MOL      0.087951
    105 H46        -2.7000    2.0650    2.9830 hc        1 MOL      0.087951
    106 H47        -2.8910    3.7050   -0.8490 hc        1 MOL      0.087951
    107 H48        -4.4100    4.0660    0.0530 hc        1 MOL      0.087951
    108 H49        -2.7810    4.8420    0.4650 hc        1 MOL      0.087951
    109 N10        -2.5070    0.2230   -0.7810 n         1 MOL     -0.184901
    110 C35        -1.8340   -0.3660   -1.9910 c3        1 MOL     -0.168422
    111 C36        -0.9210    0.7870   -2.6710 c         1 MOL      0.588569
    112 O17        -0.5710    0.6480   -3.7990 o         1 MOL     -0.544601
    113 C37        -1.0260   -1.6200   -1.6260 c3        1 MOL     -0.343875
    114 C38         0.4650   -1.3520   -1.2330 c         1 MOL      0.694133
    115 N11         0.6800   -0.5510   -0.1730 n         1 MOL     -0.802208
    116 O18         1.3900   -1.8450   -1.8750 o         1 MOL     -0.517465
    117 H50        -2.0270    0.0260    0.0860 hn        1 MOL      0.229015
    118 H51        -2.5790   -0.7080   -2.7070 h1        1 MOL      0.176475
    119 H52        -1.0230   -2.1070   -2.5950 hc        1 MOL      0.157765
    120 H53        -1.4430   -2.1470   -0.7700 hc        1 MOL      0.157765
    121 H54        -0.0480   -0.5300    0.5210 hn        1 MOL      0.358347
    122 H55         1.6340   -0.3410    0.0720 hn        1 MOL      0.358347
    123 N12        -0.7550    1.9430   -2.0810 n         1 MOL     -0.089612
    124 C39         0.0860    2.9940   -2.5560 c3        1 MOL     -0.142392
    125 C40         0.6660    3.9860   -1.4970 c         1 MOL      0.662520
    126 O19         0.3200    3.8530   -0.2970 o         1 MOL     -0.518632
    127 C41        -0.6140    3.7930   -3.7430 c3        1 MOL      0.393394
    128 C42        -1.9790    4.4170   -3.5430 ca        1 MOL     -0.012737
    129 C43        -2.0670    5.8160   -3.2720 ca        1 MOL     -0.106685
    130 C44        -3.1440    3.6250   -3.6130 ca        1 MOL     -0.106685
    131 C45        -3.3180    6.2870   -2.8500 ca        1 MOL     -0.324903
    132 C46        -4.4370    4.1960   -3.3570 ca        1 MOL     -0.324903
    133 C47        -4.5350    5.5510   -2.9380 ca        1 MOL      0.355526
    134 O20        -5.7210    6.0440   -2.5490 oh        1 MOL     -0.529744
    135 H56        -1.4810    2.1950   -1.4240 hn        1 MOL     -0.218570
    136 H57         0.9900    2.5650   -2.9770 h1        1 MOL      0.115497
    137 H58        -0.6860    3.1100   -4.5950 hc        1 MOL     -0.120596
    138 H59         0.0410    4.5730   -4.1250 hc        1 MOL     -0.120596
    139 H60        -1.1530    6.3750   -3.1810 ha        1 MOL      0.146310
    140 H61        -3.0040    2.5900   -3.9050 ha        1 MOL      0.146310
    141 H62        -3.3650    7.3100   -2.5110 ha        1 MOL      0.161608
    142 H63        -5.3270    3.5990   -3.4730 ha        1 MOL      0.161608
    143 H64        -6.4940    5.5420   -2.8010 ho        1 MOL      0.394140
    144 N13         1.5340    4.9230   -1.8740 n         1 MOL     -0.678634
    145 C48         2.3760    5.6470   -0.8810 c3        1 MOL      0.290602
    146 C49         3.8370    5.2600   -1.1100 c         1 MOL      0.457505
    147 O21         4.5990    6.0010   -1.7410 o         1 MOL     -0.523257
    148 C50         2.1410    7.1620   -0.9730 c3        1 MOL      0.067999
    149 C51         2.7310    7.9670    0.1600 c3        1 MOL     -0.281533
    150 C52         2.5310    9.4890   -0.0080 c         1 MOL      0.802782
    151 O22         1.4950    9.8370   -0.5910 o         1 MOL     -0.724995
    152 O23         3.2700   10.3280    0.4930 o         1 MOL     -0.724995
    153 H65         1.8440    4.8820   -2.8330 hn        1 MOL      0.321266
    154 H66         2.0080    5.3580    0.1080 h1        1 MOL      0.014362
    155 H67         1.0660    7.2720   -0.9440 hc        1 MOL     -0.005269
    156 H68         2.5120    7.6230   -1.8920 hc        1 MOL     -0.005269
    157 H69         3.7990    7.7210    0.1690 hc        1 MOL      0.029336
    158 H70         2.3930    7.6580    1.1490 hc        1 MOL      0.029336
    159 N14         4.2370    4.0750   -0.7490 n         1 MOL     -0.565684
    160 C53         5.5590    3.4970   -1.1500 c3        1 MOL      0.305773
    161 C54         5.5630    2.7730   -2.5370 c         1 MOL      0.302441
    162 O24         6.5350    2.8720   -3.3080 o         1 MOL     -0.522193
    163 C55         6.1170    2.5570   -0.0220 c3        1 MOL     -0.121741
    164 C56         5.9620    3.1950    1.3430 c3        1 MOL     -0.087443
    165 C57         6.1360    2.0470    2.3950 c         1 MOL      0.486248
    166 O25         6.9420    1.0940    2.2770 o         1 MOL     -0.639111
    167 O26         5.4030    2.1040    3.3820 o         1 MOL     -0.639111
    168 H71         3.4890    3.4650   -0.4480 hn        1 MOL      0.290894
    169 H72         6.3200    4.2790   -1.1010 h1        1 MOL      0.038881
    170 H73         7.1540    2.3250   -0.2490 hc        1 MOL      0.036348
    171 H74         5.5900    1.6050   -0.0990 hc        1 MOL      0.036348
    172 H75         4.9850    3.6220    1.5750 hc        1 MOL      0.044024
    173 H76         6.7110    3.9760    1.4820 hc        1 MOL      0.044024
    174 N15         4.3990    2.1170   -2.8600 n         1 MOL     -0.136226
    175 C58         4.1800    1.6230   -4.2310 c3        1 MOL     -0.142479
    176 H77         3.8700    0.5790   -4.1950 h1        1 MOL      0.072985
    177 H78         3.4020    2.2160   -4.7120 h1        1 MOL      0.072985
    178 H79         5.1060    1.7070   -4.8000 h1        1 MOL      0.072985
    179 H80         3.6470    2.1610   -2.1900 hn        1 MOL      0.183286
    180 Ca1         6.4920   -0.5750    4.2200 Ca        1 MOL      1.611378
    181 O27         6.6700   -3.2260    3.6140 oh        1 MOL     -0.760845
    182 H81         6.0010   -3.7840    4.0300 ho        1 MOL      0.365824
    183 H82         7.3770   -3.8350    3.4000 ho        1 MOL      0.365824
    184 O28         9.0370   -1.1940    3.5140 oh        1 MOL     -0.760845
    185 H83         9.6090   -1.6700    4.1100 ho        1 MOL      0.365824
    186 H84         9.6270   -0.7590    2.9000 ho        1 MOL      0.365824
    187 O29         4.5540   -2.1000    5.4310 oh        1 MOL     -0.760845
    188 H85         3.6360   -2.0520    5.1640 ho        1 MOL      0.365824
    189 H86         4.6480   -2.9780    5.7910 ho        1 MOL      0.365824
    190 O30         7.5110   -1.5750    6.4330 oh        1 MOL     -0.760845
    191 H87         7.8860   -1.0830    7.1610 ho        1 MOL      0.365824
    192 H88         7.8810   -2.4460    6.5080 ho        1 MOL      0.365824
    193 O31         8.1750    1.0070    5.4780 oh        1 MOL     -0.760845
    194 H89         9.1100    0.8810    5.3240 ho        1 MOL      0.365824
    195 H90         8.0850    1.9560    5.6350 ho        1 MOL      0.365824
    196 O32         5.1050    0.6760    6.3010 oh        1 MOL     -0.760845
    197 H91         4.2830    0.2740    6.6000 ho        1 MOL      0.365824
    198 H92         5.3570    1.2640    7.0130 ho        1 MOL      0.365824
@<TRIPOS>BOND
     1    1    2 1   
     2    1    4 1   
     3    1    5 1   
     4    1    6 1   
     5    2    3 2   
     6    2    7 1   
     7    7    8 1   
     8    7   15 1   
     9    8    9 1   
    10    8   11 1   
    11    8   16 1   
    12    9   10 2   
    13    9   19 1   
    14   11   12 1   
    15   11   17 1   
    16   11   18 1   
    17   12   13 1   
    18   12   14 1   
    19   19   20 1   
    20   19   27 1   
    21   20   21 1   
    22   20   23 1   
    23   20   28 1   
    24   21   22 2   
    25   21   38 1   
    26   23   24 1   
    27   23   25 1   
    28   23   29 1   
    29   24   26 1   
    30   24   30 1   
    31   24   31 1   
    32   25   32 1   
    33   25   33 1   
    34   25   34 1   
    35   26   35 1   
    36   26   36 1   
    37   26   37 1   
    38   38   39 1   
    39   38   46 1   
    40   39   40 1   
    41   39   42 1   
    42   39   47 1   
    43   40   41 2   
    44   40   50 1   
    45   42   43 1   
    46   42   48 1   
    47   42   49 1   
    48   43   44 1   
    49   43   45 1   
    50   50   51 1   
    51   50   54 1   
    52   51   52 1   
    53   51   55 1   
    54   51   56 1   
    55   52   53 2   
    56   52   57 1   
    57   57   58 1   
    58   57   65 1   
    59   58   59 1   
    60   58   61 1   
    61   58   66 1   
    62   59   60 2   
    63   59   69 1   
    64   61   62 1   
    65   61   67 1   
    66   61   68 1   
    67   62   63 1   
    68   62   64 1   
    69   69   70 1   
    70   69   73 1   
    71   70   71 1   
    72   70   74 1   
    73   70   75 1   
    74   71   72 2   
    75   71   76 1   
    76   76   77 1   
    77   76   85 1   
    78   77   78 1   
    79   77   80 1   
    80   77   86 1   
    81   78   79 2   
    82   78   93 1   
    83   80   81 1   
    84   80   87 1   
    85   80   88 1   
    86   81   82 1   
    87   81   89 1   
    88   81   90 1   
    89   82   83 1   
    90   82   84 2   
    91   83   91 1   
    92   83   92 1   
    93   93   94 1   
    94   93  100 1   
    95   94   95 1   
    96   94   97 1   
    97   94  101 1   
    98   95   96 2   
    99   95  109 1   
   100   97   98 1   
   101   97   99 1   
   102   97  102 1   
   103   98  103 1   
   104   98  104 1   
   105   98  105 1   
   106   99  106 1   
   107   99  107 1   
   108   99  108 1   
   109  109  110 1   
   110  109  117 1   
   111  110  111 1   
   112  110  113 1   
   113  110  118 1   
   114  111  112 2   
   115  111  123 1   
   116  113  114 1   
   117  113  119 1   
   118  113  120 1   
   119  114  115 1   
   120  114  116 2   
   121  115  121 1   
   122  115  122 1   
   123  123  124 1   
   124  123  135 1   
   125  124  125 1   
   126  124  127 1   
   127  124  136 1   
   128  125  126 2   
   129  125  144 1   
   130  127  128 1   
   131  127  137 1   
   132  127  138 1   
   133  128  129 ar  
   134  128  130 ar  
   135  129  131 ar  
   136  129  139 1   
   137  130  132 ar  
   138  130  140 1   
   139  131  133 ar  
   140  131  141 1   
   141  132  133 ar  
   142  132  142 1   
   143  133  134 1   
   144  134  143 1   
   145  144  145 1   
   146  144  153 1   
   147  145  146 1   
   148  145  148 1   
   149  145  154 1   
   150  146  147 2   
   151  146  159 1   
   152  148  149 1   
   153  148  155 1   
   154  148  156 1   
   155  149  150 1   
   156  149  157 1   
   157  149  158 1   
   158  150  151 1   
   159  150  152 1   
   160  159  160 1   
   161  159  168 1   
   162  160  161 1   
   163  160  163 1   
   164  160  169 1   
   165  161  162 2   
   166  161  174 1   
   167  163  164 1   
   168  163  170 1   
   169  163  171 1   
   170  164  165 1   
   171  164  172 1   
   172  164  173 1   
   173  165  166 1   
   174  165  167 1   
   175  174  175 1   
   176  174  179 1   
   177  175  176 1   
   178  175  177 1   
   179  175  178 1   
   180  181  182 1   
   181  181  183 1   
   182  184  185 1   
   183  184  186 1   
   184  187  188 1   
   185  187  189 1   
   186  190  191 1   
   187  190  192 1   
   188  193  194 1   
   189  193  195 1   
   190  196  197 1   
   191  196  198 1   
@<TRIPOS>SUBSTRUCTURE
     1 MOL         1 TEMP              0 ****  ****    0 ROOT
