@<TRIPOS>MOLECULE
MOL
  179   176     1     0     0
SMALL
resp


@<TRIPOS>ATOM
      1 C1          1.5300   -4.3040    6.2200 c3        1 MOL     -0.431703
      2 C2          1.5360   -4.1300    4.7190 c         1 MOL      0.835212
      3 O1          0.7580   -4.6910    4.0250 o         1 MOL     -0.607482
      4 H1          1.0570   -5.2540    6.4720 hc        1 MOL      0.107601
      5 H2          2.5550   -4.2990    6.5920 hc        1 MOL      0.107601
      6 H3          0.9720   -3.4880    6.6790 hc        1 MOL      0.107601
      7 N1          2.6010   -3.5660    4.1760 n         1 MOL     -0.538634
      8 C3          2.7090   -3.1860    2.6530 c3        1 MOL     -0.024082
      9 C4          3.0000   -4.4860    1.8380 c         1 MOL      0.628006
     10 O2          3.6090   -5.4560    2.3640 o         1 MOL     -0.567156
     11 C5          3.7530   -2.0950    2.5920 c3        1 MOL     -0.030201
     12 C6          3.8160   -1.3480    1.2720 c         1 MOL      0.221775
     13 O3          4.4160   -0.2440    1.1400 o         1 MOL     -0.544046
     14 O4          3.1190   -1.7960    0.3310 o         1 MOL     -0.544046
     15 H4          3.3820   -3.2450    4.7320 hn        1 MOL      0.274338
     16 H5          1.8210   -2.6870    2.2490 h1        1 MOL     -0.027195
     17 H6          4.6790   -2.6130    2.8050 hc        1 MOL      0.061520
     18 H7          3.5350   -1.2760    3.2800 hc        1 MOL      0.061520
     19 N2          2.5260   -4.6050    0.6360 n         1 MOL     -0.378747
     20 C7          2.7500   -5.6820   -0.3930 c3        1 MOL      0.173704
     21 C8          3.8960   -5.3020   -1.2740 c         1 MOL      0.427408
     22 O5          4.2610   -6.1510   -2.1020 o         1 MOL     -0.544365
     23 C9          1.4780   -6.0280   -1.1360 c3        1 MOL     -0.249354
     24 C10         1.0390   -5.2840   -2.3780 c3        1 MOL      0.175195
     25 C11         0.0070   -6.1210   -3.1420 c3        1 MOL     -0.124072
     26 C12        -0.3720   -5.5140   -4.4350 c3        1 MOL      0.054281
     27 N3         -0.8050   -4.1470   -4.3150 n4        1 MOL     -0.391186
     28 H8          1.9550   -3.8530    0.2810 hn        1 MOL      0.200032
     29 H9          3.1520   -6.5340    0.1700 h1        1 MOL      0.093779
     30 H10         0.7260   -5.9440   -0.3570 hc        1 MOL      0.071665
     31 H11         1.5590   -7.0600   -1.4770 hc        1 MOL      0.071665
     32 H12         1.8840   -5.0480   -3.0260 hc        1 MOL     -0.007831
     33 H13         0.6030   -4.3440   -2.0300 hc        1 MOL     -0.007831
     34 H14        -0.8680   -6.2240   -2.5030 hc        1 MOL      0.067547
     35 H15         0.4190   -7.1160   -3.2980 hc        1 MOL      0.067547
     36 H16        -1.2380   -6.0850   -4.7660 hx        1 MOL      0.082023
     37 H17         0.3860   -5.4670   -5.2090 hx        1 MOL      0.082023
     38 H18        -1.1860   -3.9190   -5.2270 hn        1 MOL      0.315054
     39 H19        -1.5430   -4.1110   -3.6370 hn        1 MOL      0.315054
     40 H20         0.0040   -3.5570   -4.1600 hn        1 MOL      0.315054
     41 N4          4.4590   -4.1060   -1.0590 n         1 MOL     -0.270337
     42 C13         5.6390   -3.7090   -1.8290 c3        1 MOL      0.128118
     43 C14         6.8110   -3.1000   -1.0540 c         1 MOL      0.392557
     44 O6          7.8650   -3.7530   -1.1380 o         1 MOL     -0.535548
     45 C15         5.1870   -2.7470   -2.9170 c3        1 MOL     -0.306065
     46 C16         4.3700   -1.5890   -2.4550 c         1 MOL      1.035512
     47 O7          3.2120   -1.5680   -2.8080 o         1 MOL     -0.906328
     48 O8          4.9220   -0.5740   -1.9170 o         1 MOL     -0.906328
     49 H21         4.0080   -3.5650   -0.3350 hn        1 MOL      0.097629
     50 H22         6.0040   -4.6000   -2.3520 h1        1 MOL      0.078598
     51 H23         4.5910   -3.2590   -3.6670 hc        1 MOL      0.081228
     52 H24         6.0560   -2.3230   -3.4090 hc        1 MOL      0.081228
     53 N5          6.6950   -2.0530   -0.2490 n         1 MOL     -0.180100
     54 C17         7.6940   -1.4410    0.5880 c3        1 MOL     -0.170838
     55 C18         7.7810    0.0960    0.4680 c         1 MOL      0.463835
     56 O9          8.4250    0.7070    1.3070 o         1 MOL     -0.557854
     57 H25         5.8040   -1.5940   -0.3710 hn        1 MOL      0.300957
     58 H26         8.6680   -1.8560    0.3570 h1        1 MOL      0.126192
     59 H27         7.4980   -1.7200    1.6180 h1        1 MOL      0.126192
     60 N6          7.0130    0.7560   -0.3830 n         1 MOL     -0.135769
     61 C19         7.1640    2.1390   -0.7570 c3        1 MOL      0.182844
     62 C20         5.8210    2.9320   -0.5520 c         1 MOL      0.557464
     63 O10         4.7610    2.2740   -0.6380 o         1 MOL     -0.707199
     64 C21         7.5760    2.2090   -2.2350 c3        1 MOL     -0.537630
     65 C22         7.0370    3.3840   -3.0250 c         1 MOL      0.735443
     66 N7          5.8670    3.3310   -3.5550 n         1 MOL     -0.743739
     67 O11         7.6350    4.4430   -3.0390 o         1 MOL     -0.579129
     68 H28         6.4170    0.1800   -0.9680 hn        1 MOL      0.106310
     69 H29         7.9130    2.6930   -0.1870 h1        1 MOL      0.046983
     70 H30         7.2000    1.3570   -2.7900 hc        1 MOL      0.162162
     71 H31         8.6700    2.2020   -2.3180 hc        1 MOL      0.162162
     72 H32         5.3390    2.4740   -3.4180 hn        1 MOL      0.344245
     73 H33         5.3620    4.0960   -3.9730 hn        1 MOL      0.344245
     74 N8          5.9480    4.2400   -0.2890 n         1 MOL     -0.404568
     75 C23         4.7500    5.1700   -0.2420 c3        1 MOL     -0.119790
     76 C24         3.6560    4.8990    0.8290 c         1 MOL      0.720477
     77 O12         3.9510    4.7070    1.9870 o         1 MOL     -0.529757
     78 H34         6.8560    4.6770   -0.2200 hn        1 MOL      0.342530
     79 H35         4.2690    5.2220   -1.2230 h1        1 MOL      0.089986
     80 H36         5.0730    6.1620    0.0710 h1        1 MOL      0.089986
     81 N9          2.4270    4.8670    0.3840 n         1 MOL     -0.737056
     82 C25         1.1370    4.4750    1.0520 c3        1 MOL      0.351412
     83 C26         1.1090    3.0250    1.3170 c         1 MOL      0.563312
     84 O13         1.9950    2.3400    0.8880 o         1 MOL     -0.436943
     85 C27        -0.1010    5.1000    0.3520 c3        1 MOL     -0.293197
     86 C28        -0.1010    6.5890   -0.0400 ca        1 MOL      0.082457
     87 C29        -0.2030    7.5080    1.0320 ca        1 MOL     -0.132242
     88 C30        -0.0270    7.0980   -1.3630 ca        1 MOL     -0.132242
     89 C31        -0.0750    8.8700    0.8090 ca        1 MOL     -0.273689
     90 C32         0.0960    8.4710   -1.5790 ca        1 MOL     -0.273689
     91 C33         0.0590    9.3420   -0.5420 ca        1 MOL      0.374322
     92 O14         0.2310   10.6690   -0.8350 oh        1 MOL     -0.510305
     93 H37         2.3870    4.8500   -0.6250 hn        1 MOL      0.294570
     94 H38         1.1290    4.9860    2.0080 h1        1 MOL      0.050903
     95 H39        -0.9920    4.9350    0.9650 hc        1 MOL      0.079812
     96 H40        -0.2620    4.5330   -0.5560 hc        1 MOL      0.079812
     97 H41        -0.2890    7.1100    2.0290 ha        1 MOL      0.125763
     98 H42         0.1590    6.4840   -2.2280 ha        1 MOL      0.125763
     99 H43        -0.0630    9.5340    1.6690 ha        1 MOL      0.163187
    100 H44         0.3790    8.8340   -2.5560 ha        1 MOL      0.163187
    101 H45         0.0190   11.2690   -0.1150 ho        1 MOL      0.389301
    102 N10         0.1370    2.5360    2.2080 n         1 MOL     -0.736568
    103 C34        -0.0370    1.1510    2.6850 c3        1 MOL     -0.006680
    104 C35        -0.0470    0.1090    1.5800 c         1 MOL      0.495811
    105 O15         0.9620   -0.1450    0.9280 o         1 MOL     -0.410124
    106 C36         0.9310    0.8630    3.8040 c3        1 MOL      0.210184
    107 C37         0.8800   -0.5480    4.4100 c3        1 MOL      0.010300
    108 C38         0.6540    1.8180    4.9700 c3        1 MOL     -0.271161
    109 C39        -0.1590   -0.9630    5.4540 c3        1 MOL     -0.238003
    110 H46        -0.3710    3.3080    2.6110 hn        1 MOL      0.355492
    111 H47        -0.9970    1.2280    3.1820 h1        1 MOL      0.096798
    112 H48         1.9350    1.0660    3.4250 hc        1 MOL      0.042464
    113 H49         1.8670   -0.6420    4.8370 hc        1 MOL      0.025746
    114 H50         0.8680   -1.2960    3.6160 hc        1 MOL      0.025746
    115 H51        -0.3390    1.6970    5.4090 hc        1 MOL      0.069626
    116 H52         1.3690    1.5630    5.7520 hc        1 MOL      0.069626
    117 H53         0.8040    2.8730    4.7340 hc        1 MOL      0.069626
    118 H54        -0.0930   -0.2950    6.3160 hc        1 MOL      0.055012
    119 H55        -1.1190   -0.8950    4.9420 hc        1 MOL      0.055012
    120 H56         0.0610   -1.9980    5.7260 hc        1 MOL      0.055012
    121 N11        -1.2720   -0.4000    1.4200 n         1 MOL     -0.339902
    122 C40        -1.6390   -1.1060    0.1760 c3        1 MOL     -0.190505
    123 C41        -3.1220   -1.0310   -0.1900 c         1 MOL      0.622282
    124 O16        -3.4300   -1.6360   -1.2090 o         1 MOL     -0.536692
    125 C42        -1.0680   -2.5440    0.3870 c3        1 MOL     -0.053893
    126 O17         0.3720   -2.6450    0.3410 oh        1 MOL     -0.287268
    127 H57        -2.0150   -0.1260    2.0490 hn        1 MOL      0.271285
    128 H58        -1.1760   -0.5620   -0.6560 h1        1 MOL      0.191403
    129 H59        -1.4850   -3.2210   -0.3570 h1        1 MOL      0.087522
    130 H60        -1.3990   -2.8460    1.3740 h1        1 MOL      0.087522
    131 H61         0.7190   -1.7630    0.1660 ho        1 MOL      0.257788
    132 N12        -4.0480   -0.3510    0.5410 n         1 MOL     -0.504551
    133 C43        -5.4280   -0.3660    0.2380 c3        1 MOL      0.115362
    134 C44        -5.7760    0.5360   -1.0140 c         1 MOL      0.562772
    135 O18        -4.9650    1.3320   -1.4200 o         1 MOL     -0.564443
    136 C45        -6.2540    0.0470    1.4690 c3        1 MOL     -0.135139
    137 H62        -3.7440    0.2410    1.3030 hn        1 MOL      0.268303
    138 H63        -5.6810   -1.3860   -0.0530 h1        1 MOL      0.073421
    139 H64        -6.0440    1.0830    1.7320 hc        1 MOL      0.052034
    140 H65        -7.3290   -0.0980    1.3050 hc        1 MOL      0.052034
    141 H66        -6.0080   -0.5360    2.3520 hc        1 MOL      0.052034
    142 N13        -6.8990    0.2610   -1.6960 n         1 MOL     -0.541874
    143 C46        -7.8970   -0.8140   -1.5110 c3        1 MOL      0.264978
    144 C47        -9.2430   -0.3060   -2.0480 c         1 MOL      0.352017
    145 O19        -9.3060    0.2740   -3.1490 o         1 MOL     -0.547066
    146 C48        -7.5020   -2.0900   -2.2650 c3        1 MOL     -0.308122
    147 H67        -6.9940    0.7870   -2.5530 hn        1 MOL      0.318651
    148 H68        -7.9720   -1.0350   -0.4500 h1        1 MOL      0.007236
    149 H69        -8.2180   -2.8440   -1.9500 hc        1 MOL      0.087795
    150 H70        -7.6320   -1.9500   -3.3350 hc        1 MOL      0.087795
    151 H71        -6.4510   -2.3540   -2.1810 hc        1 MOL      0.087795
    152 N14       -10.3740   -0.4250   -1.3880 n         1 MOL     -0.235434
    153 C49       -10.5950   -1.2710   -0.1320 c3        1 MOL     -0.160318
    154 C50       -10.2190   -0.3690    1.1280 c         1 MOL      0.440104
    155 O20        -9.6180   -0.7730    2.0940 o         1 MOL     -0.561259
    156 C51       -12.0420   -1.8290   -0.0290 c3        1 MOL      0.057071
    157 C52       -13.0690   -0.7950    0.4050 c3        1 MOL      0.035345
    158 C53       -13.4310    0.1870   -0.6840 c         1 MOL      0.552608
    159 O21       -12.5760    1.0910   -0.8900 o         1 MOL     -0.632020
    160 O22       -14.3720    0.0020   -1.4760 o         1 MOL     -0.632020
    161 H72       -11.2160   -0.1020   -1.8320 hn        1 MOL      0.295266
    162 H73        -9.8930   -2.0980   -0.1020 h1        1 MOL      0.077361
    163 H74       -12.0510   -2.5660    0.7690 hc        1 MOL      0.010865
    164 H75       -12.3570   -2.3930   -0.9050 hc        1 MOL      0.010865
    165 H76       -12.9380   -0.3180    1.3680 hc        1 MOL     -0.024449
    166 H77       -13.9450   -1.4160    0.6200 hc        1 MOL     -0.024449
    167 N15       -10.4610    0.8920    0.9460 n         1 MOL     -0.126924
    168 C54       -10.0000    2.0330    1.7650 c3        1 MOL     -0.095596
    169 H78        -9.3210    2.6500    1.1780 h1        1 MOL      0.057347
    170 H79       -10.8590    2.6290    2.0730 h1        1 MOL      0.057347
    171 H80        -9.4810    1.6600    2.6480 h1        1 MOL      0.057347
    172 H81       -10.9850    1.1330    0.1160 hn        1 MOL      0.157759
    173 Ca1         2.7510    0.5050   -0.9820 Ca        1 MOL      1.787093
    174 O23         0.7760   -1.3210   -2.1770 oh        1 MOL     -0.950669
    175 H82         0.2530   -1.3630   -2.9870 ho        1 MOL      0.443330
    176 H83         1.6350   -1.6630   -2.4370 ho        1 MOL      0.443330
    177 O24         0.2860    1.7590   -1.6950 oh        1 MOL     -0.950669
    178 H84         0.3660    2.6310   -2.0690 ho        1 MOL      0.443330
    179 H85        -0.5980    1.4770   -1.9330 ho        1 MOL      0.443330
@<TRIPOS>BOND
     1    1    2 1   
     2    1    4 1   
     3    1    5 1   
     4    1    6 1   
     5    2    3 2   
     6    2    7 1   
     7    7    8 1   
     8    7   15 1   
     9    8    9 1   
    10    8   11 1   
    11    8   16 1   
    12    9   10 2   
    13    9   19 1   
    14   11   12 1   
    15   11   17 1   
    16   11   18 1   
    17   12   13 1   
    18   12   14 1   
    19   19   20 1   
    20   19   28 1   
    21   20   21 1   
    22   20   23 1   
    23   20   29 1   
    24   21   22 2   
    25   21   41 1   
    26   23   24 1   
    27   23   30 1   
    28   23   31 1   
    29   24   25 1   
    30   24   32 1   
    31   24   33 1   
    32   25   26 1   
    33   25   34 1   
    34   25   35 1   
    35   26   27 1   
    36   26   36 1   
    37   26   37 1   
    38   27   38 1   
    39   27   39 1   
    40   27   40 1   
    41   41   42 1   
    42   41   49 1   
    43   42   43 1   
    44   42   45 1   
    45   42   50 1   
    46   43   44 2   
    47   43   53 1   
    48   45   46 1   
    49   45   51 1   
    50   45   52 1   
    51   46   47 1   
    52   46   48 1   
    53   53   54 1   
    54   53   57 1   
    55   54   55 1   
    56   54   58 1   
    57   54   59 1   
    58   55   56 2   
    59   55   60 1   
    60   60   61 1   
    61   60   68 1   
    62   61   62 1   
    63   61   64 1   
    64   61   69 1   
    65   62   63 2   
    66   62   74 1   
    67   64   65 1   
    68   64   70 1   
    69   64   71 1   
    70   65   66 1   
    71   65   67 2   
    72   66   72 1   
    73   66   73 1   
    74   74   75 1   
    75   74   78 1   
    76   75   76 1   
    77   75   79 1   
    78   75   80 1   
    79   76   77 2   
    80   76   81 1   
    81   81   82 1   
    82   81   93 1   
    83   82   83 1   
    84   82   85 1   
    85   82   94 1   
    86   83   84 2   
    87   83  102 1   
    88   85   86 1   
    89   85   95 1   
    90   85   96 1   
    91   86   87 ar  
    92   86   88 ar  
    93   87   89 ar  
    94   87   97 1   
    95   88   90 ar  
    96   88   98 1   
    97   89   91 ar  
    98   89   99 1   
    99   90   91 ar  
   100   90  100 1   
   101   91   92 1   
   102   92  101 1   
   103  102  103 1   
   104  102  110 1   
   105  103  104 1   
   106  103  106 1   
   107  103  111 1   
   108  104  105 2   
   109  104  121 1   
   110  106  107 1   
   111  106  108 1   
   112  106  112 1   
   113  107  109 1   
   114  107  113 1   
   115  107  114 1   
   116  108  115 1   
   117  108  116 1   
   118  108  117 1   
   119  109  118 1   
   120  109  119 1   
   121  109  120 1   
   122  121  122 1   
   123  121  127 1   
   124  122  123 1   
   125  122  125 1   
   126  122  128 1   
   127  123  124 2   
   128  123  132 1   
   129  125  126 1   
   130  125  129 1   
   131  125  130 1   
   132  126  131 1   
   133  132  133 1   
   134  132  137 1   
   135  133  134 1   
   136  133  136 1   
   137  133  138 1   
   138  134  135 2   
   139  134  142 1   
   140  136  139 1   
   141  136  140 1   
   142  136  141 1   
   143  142  143 1   
   144  142  147 1   
   145  143  144 1   
   146  143  146 1   
   147  143  148 1   
   148  144  145 2   
   149  144  152 1   
   150  146  149 1   
   151  146  150 1   
   152  146  151 1   
   153  152  153 1   
   154  152  161 1   
   155  153  154 1   
   156  153  156 1   
   157  153  162 1   
   158  154  155 2   
   159  154  167 1   
   160  156  157 1   
   161  156  163 1   
   162  156  164 1   
   163  157  158 1   
   164  157  165 1   
   165  157  166 1   
   166  158  159 1   
   167  158  160 1   
   168  167  168 1   
   169  167  172 1   
   170  168  169 1   
   171  168  170 1   
   172  168  171 1   
   173  174  175 1   
   174  174  176 1   
   175  177  178 1   
   176  177  179 1   
@<TRIPOS>SUBSTRUCTURE
     1 MOL         1 TEMP              0 ****  ****    0 ROOT
