@<TRIPOS>MOLECULE
MOL
  192   187     1     0     0
SMALL
resp


@<TRIPOS>ATOM
      1 C1          9.8630    1.3180    1.6060 c3        1 MOL     -0.514755
      2 C2          8.7030    0.7500    0.7590 c         1 MOL      0.780473
      3 O1          7.5890    0.9290    1.2450 o         1 MOL     -0.624062
      4 H1         10.2450    0.5390    2.2670 hc        1 MOL      0.131070
      5 H2         10.6620    1.6580    0.9470 hc        1 MOL      0.131070
      6 H3          9.5030    2.1560    2.2030 hc        1 MOL      0.131070
      7 N1          8.8530    0.1480   -0.4440 n         1 MOL     -0.611303
      8 C3          7.7040   -0.1340   -1.3290 c3        1 MOL      0.206315
      9 C4          6.9700   -1.4580   -1.0130 c         1 MOL      0.220095
     10 O2          6.6120   -2.2190   -1.9540 o         1 MOL     -0.400904
     11 C5          8.1790    0.0230   -2.7970 c3        1 MOL     -0.171730
     12 C6          9.3700   -0.7290   -3.3770 c         1 MOL      0.686213
     13 O3          9.8670   -1.6740   -2.7980 o         1 MOL     -0.662125
     14 O4          9.6990   -0.4910   -4.5640 o         1 MOL     -0.662125
     15 H4          9.7610    0.1410   -0.9030 hn        1 MOL      0.276304
     16 H5          6.8820    0.5690   -1.2350 h1        1 MOL      0.053427
     17 H6          8.3700    1.0750   -2.9950 hc        1 MOL      0.055136
     18 H7          7.3450   -0.2480   -3.4470 hc        1 MOL      0.055136
     19 N2          6.8360   -1.7650    0.2920 n         1 MOL      0.075216
     20 C7          6.4120   -3.0220    0.8180 c3        1 MOL      0.035069
     21 C8          4.9480   -3.4360    0.4870 c         1 MOL      0.296230
     22 O5          4.8340   -4.5820    0.0910 o         1 MOL     -0.493268
     23 C9          6.6870   -3.1100    2.3210 c3        1 MOL     -0.001682
     24 C10         8.0570   -2.7670    2.9100 c3        1 MOL     -0.135022
     25 C11         9.1200   -3.5630    2.1780 c3        1 MOL     -0.036031
     26 C12        10.4580   -3.3600    2.8780 c3        1 MOL      0.050663
     27 N3         11.4990   -3.8520    2.0570 n4        1 MOL     -0.336057
     28 H8          7.3560   -1.2260    0.9740 hn        1 MOL      0.007237
     29 H9          7.0700   -3.7040    0.2770 h1        1 MOL      0.047749
     30 H10         6.4020   -4.1020    2.6820 hc        1 MOL      0.034866
     31 H11         6.0380   -2.5220    2.9630 hc        1 MOL      0.034866
     32 H12         8.0340   -3.0090    3.9680 hc        1 MOL      0.061759
     33 H13         8.3640   -1.7240    2.9900 hc        1 MOL      0.061759
     34 H14         9.1640   -3.1500    1.1700 hc        1 MOL      0.052773
     35 H15         8.7960   -4.5940    2.1240 hc        1 MOL      0.052773
     36 H16        10.4420   -3.8490    3.8540 hx        1 MOL      0.059937
     37 H17        10.5960   -2.3310    3.2100 hx        1 MOL      0.059937
     38 H18        11.5960   -3.2520    1.2530 hn        1 MOL      0.302995
     39 H19        12.3320   -3.8130    2.6190 hn        1 MOL      0.302995
     40 H20        11.3990   -4.8220    1.7810 hn        1 MOL      0.302995
     41 N4          3.8890   -2.6190    0.5610 n         1 MOL     -0.244281
     42 C13         3.7800   -1.2850    1.2030 c3        1 MOL      0.142001
     43 C14         3.9970   -0.1580    0.1440 c         1 MOL      0.045554
     44 O6          4.0130   -0.3820   -1.0750 o         1 MOL     -0.350662
     45 C15         2.6160   -1.2700    2.2260 c3        1 MOL     -0.305177
     46 C16         1.2830   -1.8250    1.7220 c         1 MOL      0.847593
     47 O7          0.6650   -1.1780    0.8980 o         1 MOL     -0.740304
     48 O8          0.7810   -2.8810    2.1440 o         1 MOL     -0.740304
     49 H21         3.0270   -3.1080    0.3550 hn        1 MOL      0.302056
     50 H22         4.6250   -1.0700    1.8600 h1        1 MOL      0.055196
     51 H23         2.5040   -0.2580    2.6180 hc        1 MOL      0.035354
     52 H24         2.9150   -1.9610    3.0120 hc        1 MOL      0.035354
     53 N5          4.1440    1.0390    0.6660 n         1 MOL     -0.161763
     54 C17         4.2090    2.2750   -0.1600 c3        1 MOL     -0.164817
     55 C18         2.8850    2.5510   -0.9490 c         1 MOL      0.517810
     56 O9          1.8820    1.9760   -0.6520 o         1 MOL     -0.433490
     57 H25         4.2820    1.2040    1.6500 hn        1 MOL      0.285600
     58 H26         4.9690    2.2540   -0.9490 h1        1 MOL      0.091963
     59 H27         4.3410    3.1130    0.5210 h1        1 MOL      0.091963
     60 N6          2.9020    3.5430   -1.8900 n         1 MOL     -0.465301
     61 C19         1.7870    4.2670   -2.4610 c3        1 MOL      0.205668
     62 C20         2.1560    5.7410   -2.7100 c         1 MOL      0.379483
     63 O10         3.3000    6.0840   -2.8640 o         1 MOL     -0.507020
     64 C21         1.4060    3.5760   -3.8610 c3        1 MOL     -0.108395
     65 C22         1.0910    2.0660   -3.6400 c         1 MOL      0.653566
     66 O11         0.1160    1.7340   -2.9040 o         1 MOL     -0.669915
     67 O12         1.7390    1.1930   -4.2530 o         1 MOL     -0.669915
     68 H28         3.8280    3.8680   -2.1120 hn        1 MOL      0.281390
     69 H29         0.9180    4.1740   -1.8100 h1        1 MOL      0.074832
     70 H30         2.1420    3.6810   -4.6630 hc        1 MOL      0.025185
     71 H31         0.4820    4.0440   -4.1850 hc        1 MOL      0.025185
     72 N7          1.1870    6.6410   -2.8300 n         1 MOL     -0.318121
     73 C23        -0.2850    6.4320   -2.8050 c3        1 MOL     -0.268953
     74 C24        -0.9380    5.9700   -1.4730 c         1 MOL      0.723068
     75 O13        -0.4580    6.3850   -0.4060 o         1 MOL     -0.538698
     76 H32         1.4700    7.6060   -2.8920 hn        1 MOL      0.303338
     77 H33        -0.5960    5.7150   -3.5680 h1        1 MOL      0.109169
     78 H34        -0.6760    7.4230   -3.0210 h1        1 MOL      0.109169
     79 N8         -2.0770    5.2680   -1.5080 n         1 MOL     -0.667584
     80 C25        -2.7330    4.6030   -0.3550 c3        1 MOL     -0.036523
     81 C26        -1.8060    3.6110    0.3430 c         1 MOL      0.685588
     82 O14        -1.1320    2.8620   -0.3230 o         1 MOL     -0.668611
     83 C27        -3.9750    3.8570   -0.8180 c3        1 MOL      0.428136
     84 C28        -5.0440    4.7930   -1.4500 c3        1 MOL     -0.374879
     85 O15        -4.6190    3.1240    0.2520 oh        1 MOL     -0.623238
     86 H35        -2.5130    5.1810   -2.4110 hn        1 MOL      0.346706
     87 H36        -3.1050    5.2930    0.4060 h1        1 MOL      0.079293
     88 H37        -3.7120    3.1000   -1.5650 h1        1 MOL      0.006407
     89 H38        -5.1400    2.5170   -0.2710 ho        1 MOL      0.356871
     90 H39        -6.0060    4.2890   -1.3310 hc        1 MOL      0.094409
     91 H40        -5.2160    5.7330   -0.9280 hc        1 MOL      0.094409
     92 H41        -4.8020    4.9270   -2.4990 hc        1 MOL      0.094409
     93 N9         -1.6640    3.8120    1.6290 n         1 MOL     -0.355141
     94 C29        -1.1330    2.9050    2.6390 c3        1 MOL     -0.068720
     95 C30        -1.6400    1.4460    2.5500 c         1 MOL      0.373907
     96 O16        -1.3910    0.6780    1.5590 o         1 MOL     -0.430815
     97 C31         0.4350    2.9520    2.5980 c3        1 MOL      0.508074
     98 C32         1.1890    4.2530    2.4980 c3        1 MOL     -0.239937
     99 C33         0.9790    2.1010    3.7230 c3        1 MOL     -0.518077
    100 C34         0.8140    5.3140    3.4970 c3        1 MOL     -0.130297
    101 H42        -2.1160    4.6520    1.9840 hn        1 MOL      0.247150
    102 H43        -1.3180    3.3090    3.6380 h1        1 MOL      0.061870
    103 H44         0.6640    2.4800    1.6450 hc        1 MOL     -0.182300
    104 H45         0.9930    4.7140    1.5390 hc        1 MOL      0.087774
    105 H46         2.2610    4.0860    2.6620 hc        1 MOL      0.087774
    106 H47         1.1270    2.7950    4.5410 hc        1 MOL      0.119674
    107 H48         0.4070    1.2110    4.0130 hc        1 MOL      0.119674
    108 H49         1.9420    1.6840    3.4360 hc        1 MOL      0.119674
    109 H50         1.1150    4.9890    4.4930 hc        1 MOL      0.037271
    110 H51         1.3870    6.2230    3.3340 hc        1 MOL      0.037271
    111 H52        -0.2480    5.5490    3.4890 hc        1 MOL      0.037271
    112 N10        -2.3430    0.9560    3.5900 n         1 MOL     -0.287611
    113 C35        -2.8180   -0.3990    3.8150 c3        1 MOL     -0.094628
    114 C36        -4.1990   -0.6290    3.2040 c         1 MOL      0.520129
    115 O17        -4.6750   -1.7690    3.2760 o         1 MOL     -0.554077
    116 C37        -2.8880   -0.4980    5.3520 c3        1 MOL      0.419448
    117 C38        -3.7680    0.4280    6.1480 c3        1 MOL     -0.202169
    118 O18        -1.6020   -0.2830    5.9000 oh        1 MOL     -0.642461
    119 H53        -2.4150    1.5230    4.4240 hn        1 MOL      0.203601
    120 H54        -2.0880   -1.0610    3.3430 h1        1 MOL      0.089010
    121 H55        -3.1920   -1.5310    5.5260 h1        1 MOL     -0.007863
    122 H56        -0.9880   -0.9290    5.5340 ho        1 MOL      0.409170
    123 H57        -3.3520    1.4200    6.0290 hc        1 MOL      0.059040
    124 H58        -4.7610    0.5070    5.7090 hc        1 MOL      0.059040
    125 H59        -3.7940    0.2340    7.2190 hc        1 MOL      0.059040
    126 N11        -4.9440    0.3970    2.7690 n         1 MOL     -0.284383
    127 C39        -6.2850    0.1200    2.1910 c3        1 MOL     -0.044702
    128 C40        -6.1440   -0.5450    0.8200 c         1 MOL      0.388433
    129 O19        -5.5280   -0.0160   -0.0630 o         1 MOL     -0.452919
    130 C41        -7.1960    1.3660    2.0320 c3        1 MOL      0.475086
    131 C42        -8.6400    0.9020    1.8430 c3        1 MOL     -0.553813
    132 O20        -7.0710    2.1150    3.2240 oh        1 MOL     -0.629775
    133 H60        -4.5400    1.3160    2.7150 hn        1 MOL      0.197897
    134 H61        -6.7680   -0.6050    2.8510 h1        1 MOL      0.051611
    135 H62        -6.8930    1.9580    1.1660 h1        1 MOL      0.039623
    136 H63        -7.5010    1.5730    3.8950 ho        1 MOL      0.396747
    137 H64        -9.0170    0.5360    2.7950 hc        1 MOL      0.133807
    138 H65        -9.1980    1.7990    1.5990 hc        1 MOL      0.133807
    139 H66        -8.7210    0.1780    1.0250 hc        1 MOL      0.133807
    140 N12        -6.8160   -1.6810    0.5360 n         1 MOL     -0.359433
    141 C43        -6.8790   -2.4240   -0.6680 c3        1 MOL      0.113318
    142 C44        -5.5120   -2.5330   -1.3730 c         1 MOL      0.517574
    143 O21        -5.4150   -2.0490   -2.4530 o         1 MOL     -0.514346
    144 C45        -8.0760   -1.9570   -1.5560 c3        1 MOL     -0.303472
    145 C46        -9.3990   -2.3830   -0.9580 c3        1 MOL      0.040458
    146 C47       -10.5520   -1.7280   -1.7890 c3        1 MOL      0.004911
    147 C48       -11.8270   -2.5490   -1.8630 c3        1 MOL      0.003042
    148 N13       -12.8580   -1.8900   -2.6890 n4        1 MOL     -0.041486
    149 H67        -7.3150   -2.0200    1.3530 hn        1 MOL      0.242538
    150 H68        -6.9930   -3.4710   -0.3510 h1        1 MOL      0.024730
    151 H69        -7.9810   -2.4340   -2.5300 hc        1 MOL      0.127555
    152 H70        -8.1980   -0.8930   -1.7350 hc        1 MOL      0.127555
    153 H71        -9.5610   -2.1410    0.0820 hc        1 MOL      0.016746
    154 H72        -9.4870   -3.4610   -1.1100 hc        1 MOL      0.016746
    155 H73       -10.2160   -1.6560   -2.8200 hc        1 MOL      0.017108
    156 H74       -10.7090   -0.7280   -1.3980 hc        1 MOL      0.017108
    157 H75       -12.2050   -2.6170   -0.8500 hx        1 MOL      0.064386
    158 H76       -11.5780   -3.5410   -2.2520 hx        1 MOL      0.064386
    159 H77       -13.7470   -2.3520   -2.5530 hn        1 MOL      0.156538
    160 H78       -13.0470   -0.9400   -2.4240 hn        1 MOL      0.156538
    161 H79       -12.7210   -1.8440   -3.6870 hn        1 MOL      0.156538
    162 N14        -4.5250   -3.0520   -0.5830 n         1 MOL     -0.415571
    163 C49        -3.2180   -3.4110   -1.1240 c3        1 MOL      0.369159
    164 C50        -2.1360   -2.8160   -0.2030 c         1 MOL      0.184379
    165 O22        -1.6610   -1.7510   -0.4770 o         1 MOL     -0.487729
    166 C51        -2.9960   -4.8080   -1.6350 c3        1 MOL     -0.186426
    167 C52        -3.8480   -5.1260   -2.9240 c3        1 MOL     -0.350799
    168 C53        -3.4860   -6.5520   -3.4680 c         1 MOL      0.653290
    169 O23        -3.9690   -7.6850   -3.0430 o         1 MOL     -0.612184
    170 O24        -2.5700   -6.5930   -4.3280 o         1 MOL     -0.612184
    171 H80        -4.8590   -3.5320    0.2370 hn        1 MOL      0.257228
    172 H81        -3.0600   -2.8460   -2.0390 h1        1 MOL      0.010830
    173 H82        -3.1500   -5.5960   -0.9040 hc        1 MOL      0.110130
    174 H83        -1.9680   -4.7980   -1.9990 hc        1 MOL      0.110130
    175 H84        -3.6380   -4.4300   -3.7340 hc        1 MOL      0.099385
    176 H85        -4.9020   -5.0150   -2.7000 hc        1 MOL      0.099385
    177 N15        -1.7080   -3.4800    0.9150 n         1 MOL     -0.283248
    178 C54        -1.9950   -4.7200    1.6240 c3        1 MOL     -0.068187
    179 H86        -2.0370   -4.5240    2.6960 h1        1 MOL      0.045382
    180 H87        -2.9530   -5.1180    1.2900 h1        1 MOL      0.045382
    181 H88        -1.2080   -5.4470    1.4200 h1        1 MOL      0.045382
    182 H89        -1.0950   -2.9010    1.4690 hn        1 MOL      0.378970
    183 Ca1        -0.3000    0.3920   -0.8210 Ca        1 MOL      1.697105
    184 O25        -1.2080   -0.8970   -3.2680 oh        1 MOL     -0.813568
    185 H90        -0.8520   -1.7810   -3.1830 ho        1 MOL      0.398172
    186 H91        -0.8310   -0.5620   -4.0890 ho        1 MOL      0.398172
    187 O26        -3.0430    0.7910   -1.2610 oh        1 MOL     -0.813568
    188 H92        -3.8070    0.4420   -0.8080 ho        1 MOL      0.398172
    189 H93        -3.1320    0.4590   -2.1590 ho        1 MOL      0.398172
    190 O27         1.4540   -1.2230   -2.2540 oh        1 MOL     -0.813568
    191 H94         1.5550   -0.8280   -3.1140 ho        1 MOL      0.398172
    192 H95         2.2260   -1.7640   -2.1380 ho        1 MOL      0.398172
@<TRIPOS>BOND
     1    1    2 1   
     2    1    4 1   
     3    1    5 1   
     4    1    6 1   
     5    2    3 2   
     6    2    7 1   
     7    7    8 1   
     8    7   15 1   
     9    8    9 1   
    10    8   11 1   
    11    8   16 1   
    12    9   10 2   
    13    9   19 1   
    14   11   12 1   
    15   11   17 1   
    16   11   18 1   
    17   12   13 1   
    18   12   14 1   
    19   19   20 1   
    20   19   28 1   
    21   20   21 1   
    22   20   23 1   
    23   20   29 1   
    24   21   22 2   
    25   21   41 1   
    26   23   24 1   
    27   23   30 1   
    28   23   31 1   
    29   24   25 1   
    30   24   32 1   
    31   24   33 1   
    32   25   26 1   
    33   25   34 1   
    34   25   35 1   
    35   26   27 1   
    36   26   36 1   
    37   26   37 1   
    38   27   38 1   
    39   27   39 1   
    40   27   40 1   
    41   41   42 1   
    42   41   49 1   
    43   42   43 1   
    44   42   45 1   
    45   42   50 1   
    46   43   44 2   
    47   43   53 1   
    48   45   46 1   
    49   45   51 1   
    50   45   52 1   
    51   46   47 1   
    52   46   48 1   
    53   53   54 1   
    54   53   57 1   
    55   54   55 1   
    56   54   58 1   
    57   54   59 1   
    58   55   56 2   
    59   55   60 1   
    60   60   61 1   
    61   60   68 1   
    62   61   62 1   
    63   61   64 1   
    64   61   69 1   
    65   62   63 2   
    66   62   72 1   
    67   64   65 1   
    68   64   70 1   
    69   64   71 1   
    70   65   66 1   
    71   65   67 1   
    72   72   73 1   
    73   72   76 1   
    74   73   74 1   
    75   73   77 1   
    76   73   78 1   
    77   74   75 2   
    78   74   79 1   
    79   79   80 1   
    80   79   86 1   
    81   80   81 1   
    82   80   83 1   
    83   80   87 1   
    84   81   82 2   
    85   81   93 1   
    86   83   84 1   
    87   83   85 1   
    88   83   88 1   
    89   84   90 1   
    90   84   91 1   
    91   84   92 1   
    92   85   89 1   
    93   93   94 1   
    94   93  101 1   
    95   94   95 1   
    96   94   97 1   
    97   94  102 1   
    98   95   96 2   
    99   95  112 1   
   100   97   98 1   
   101   97   99 1   
   102   97  103 1   
   103   98  100 1   
   104   98  104 1   
   105   98  105 1   
   106   99  106 1   
   107   99  107 1   
   108   99  108 1   
   109  100  109 1   
   110  100  110 1   
   111  100  111 1   
   112  112  113 1   
   113  112  119 1   
   114  113  114 1   
   115  113  116 1   
   116  113  120 1   
   117  114  115 2   
   118  114  126 1   
   119  116  117 1   
   120  116  118 1   
   121  116  121 1   
   122  117  123 1   
   123  117  124 1   
   124  117  125 1   
   125  118  122 1   
   126  126  127 1   
   127  126  133 1   
   128  127  128 1   
   129  127  130 1   
   130  127  134 1   
   131  128  129 2   
   132  128  140 1   
   133  130  131 1   
   134  130  132 1   
   135  130  135 1   
   136  131  137 1   
   137  131  138 1   
   138  131  139 1   
   139  132  136 1   
   140  140  141 1   
   141  140  149 1   
   142  141  142 1   
   143  141  144 1   
   144  141  150 1   
   145  142  143 2   
   146  142  162 1   
   147  144  145 1   
   148  144  151 1   
   149  144  152 1   
   150  145  146 1   
   151  145  153 1   
   152  145  154 1   
   153  146  147 1   
   154  146  155 1   
   155  146  156 1   
   156  147  148 1   
   157  147  157 1   
   158  147  158 1   
   159  148  159 1   
   160  148  160 1   
   161  148  161 1   
   162  162  163 1   
   163  162  171 1   
   164  163  164 1   
   165  163  166 1   
   166  163  172 1   
   167  164  165 2   
   168  164  177 1   
   169  166  167 1   
   170  166  173 1   
   171  166  174 1   
   172  167  168 1   
   173  167  175 1   
   174  167  176 1   
   175  168  169 1   
   176  168  170 1   
   177  177  178 1   
   178  177  182 1   
   179  178  179 1   
   180  178  180 1   
   181  178  181 1   
   182  184  185 1   
   183  184  186 1   
   184  187  188 1   
   185  187  189 1   
   186  190  191 1   
   187  190  192 1   
@<TRIPOS>SUBSTRUCTURE
     1 MOL         1 TEMP              0 ****  ****    0 ROOT
