@<TRIPOS>MOLECULE
MOL
  179   176     1     0     0
SMALL
resp


@<TRIPOS>ATOM
      1 C1          2.8140   -5.5270    5.9750 c3        1 MOL     -0.400683
      2 C2          2.5810   -5.1810    4.4390 c         1 MOL      0.718181
      3 O1          1.7930   -5.7750    3.7510 o         1 MOL     -0.535909
      4 H1          3.4490   -4.7650    6.4270 hc        1 MOL      0.104700
      5 H2          1.8550   -5.5530    6.4920 hc        1 MOL      0.104700
      6 H3          3.2990   -6.5000    6.0590 hc        1 MOL      0.104700
      7 N1          3.2220   -4.0950    3.9830 n         1 MOL     -0.545989
      8 C3          3.1490   -3.4940    2.6350 c3        1 MOL     -0.057140
      9 C4          3.4580   -4.4930    1.4680 c         1 MOL      0.525018
     10 O2          4.2740   -5.4250    1.6080 o         1 MOL     -0.511526
     11 C5          4.1170   -2.2550    2.4920 c3        1 MOL      0.110790
     12 C6          3.7820   -1.3160    1.3360 c         1 MOL      0.245918
     13 O3          3.8200   -0.0940    1.6250 o         1 MOL     -0.505100
     14 O4          3.4660   -1.7010    0.1920 o         1 MOL     -0.505100
     15 H4          3.9280   -3.6650    4.5720 hn        1 MOL      0.298358
     16 H5          2.0660   -3.3870    2.5760 h1        1 MOL      0.073053
     17 H6          5.1430   -2.6260    2.4630 hc        1 MOL      0.027949
     18 H7          4.1650   -1.6420    3.3850 hc        1 MOL      0.027949
     19 N2          2.6620   -4.4210    0.3760 n         1 MOL     -0.370303
     20 C7          2.8880   -5.2490   -0.8520 c3        1 MOL      0.094285
     21 C8          3.8980   -4.7700   -1.7730 c         1 MOL      0.381315
     22 O5          4.3210   -5.5780   -2.6010 o         1 MOL     -0.544663
     23 C9          1.5980   -5.6470   -1.5400 c3        1 MOL     -0.001947
     24 C10         0.8410   -4.5310   -2.2700 c3        1 MOL      0.009976
     25 C11        -0.2230   -5.0770   -3.2180 c3        1 MOL     -0.042134
     26 C12        -1.1890   -4.0860   -3.6980 c3        1 MOL      0.066992
     27 N3         -0.8900   -3.4880   -5.0330 n4        1 MOL     -0.533608
     28 H8          2.0880   -3.6030    0.2200 hn        1 MOL      0.038514
     29 H9          3.2020   -6.2640   -0.5740 h1        1 MOL      0.123927
     30 H10         0.9720   -6.0290   -0.7450 hc        1 MOL      0.026656
     31 H11         1.7850   -6.5420   -2.1380 hc        1 MOL      0.026656
     32 H12         1.6230   -4.0120   -2.8200 hc        1 MOL      0.017461
     33 H13         0.4610   -3.9300   -1.4560 hc        1 MOL      0.017461
     34 H14        -0.7330   -5.9150   -2.7380 hc        1 MOL      0.044347
     35 H15         0.4000   -5.3930   -4.0590 hc        1 MOL      0.044347
     36 H16        -1.2540   -3.3680   -2.8870 hx        1 MOL      0.070716
     37 H17        -2.1990   -4.5020   -3.6990 hx        1 MOL      0.070716
     38 H18        -1.5150   -2.7670   -5.3550 hn        1 MOL      0.352759
     39 H19         0.0130   -3.0720   -4.8330 hn        1 MOL      0.352759
     40 H20        -0.8200   -4.2160   -5.7290 hn        1 MOL      0.352759
     41 N4          4.4000   -3.5170   -1.7160 n         1 MOL     -0.301512
     42 C13         5.4900   -3.0260   -2.5720 c3        1 MOL      0.235621
     43 C14         6.6340   -2.3460   -1.7760 c         1 MOL      0.279621
     44 O6          7.8340   -2.6440   -2.0030 o         1 MOL     -0.503659
     45 C15         4.9420   -2.0810   -3.5760 c3        1 MOL     -0.371150
     46 C16         4.0020   -1.0010   -2.9470 c         1 MOL      0.928384
     47 O7          2.7680   -1.0060   -3.0440 o         1 MOL     -0.881439
     48 O8          4.5450   -0.1860   -2.1450 o         1 MOL     -0.881439
     49 H21         4.0470   -2.8650   -1.0340 hn        1 MOL      0.258866
     50 H22         5.8580   -3.8460   -3.2000 h1        1 MOL      0.083215
     51 H23         4.3940   -2.6850   -4.3040 hc        1 MOL      0.098316
     52 H24         5.7730   -1.5770   -4.0680 hc        1 MOL      0.098316
     53 N5          6.3230   -1.6530   -0.6530 n         1 MOL      0.011032
     54 C17         7.2050   -1.0220    0.3200 c3        1 MOL     -0.197003
     55 C18         7.4040    0.5050    0.0460 c         1 MOL      0.461255
     56 O9          8.3360    1.1190    0.6900 o         1 MOL     -0.542293
     57 H25         5.3440   -1.6230   -0.3740 hn        1 MOL     -0.001885
     58 H26         8.1200   -1.6130    0.3480 h1        1 MOL      0.123095
     59 H27         6.8320   -1.0600    1.3450 h1        1 MOL      0.123095
     60 N6          6.6440    1.1340   -0.8670 n         1 MOL     -0.177520
     61 C19         6.6060    2.5630   -1.2310 c3        1 MOL     -0.041232
     62 C20         5.3140    3.1780   -0.7140 c         1 MOL      0.825084
     63 O10         4.3850    2.5030   -0.2590 o         1 MOL     -0.738507
     64 C21         6.9410    2.7130   -2.7500 c3        1 MOL     -0.368540
     65 C22         8.3530    2.8710   -3.1210 c         1 MOL      0.775804
     66 N7          8.5140    3.0540   -4.4330 n         1 MOL     -0.886964
     67 O11         9.2810    2.8980   -2.3270 o         1 MOL     -0.511593
     68 H28         6.0430    0.5530   -1.4230 hn        1 MOL      0.268760
     69 H29         7.3600    3.1810   -0.7400 h1        1 MOL      0.057096
     70 H30         6.4410    3.6370   -3.0650 hc        1 MOL      0.081661
     71 H31         6.4730    1.9280   -3.3500 hc        1 MOL      0.081661
     72 H32         7.7400    3.3770   -4.9960 hn        1 MOL      0.383670
     73 H33         9.4360    2.9400   -4.8390 hn        1 MOL      0.383670
     74 N8          5.2600    4.4970   -0.8730 n         1 MOL     -0.560449
     75 C23         4.0880    5.3620   -0.7260 c3        1 MOL     -0.083021
     76 C24         3.3130    5.1130    0.5640 c         1 MOL      0.710927
     77 O12         3.8540    5.2130    1.6550 o         1 MOL     -0.521474
     78 H34         6.0890    4.9840   -1.1740 hn        1 MOL      0.362058
     79 H35         3.4210    5.1510   -1.5580 h1        1 MOL      0.081170
     80 H36         4.3200    6.4100   -0.8480 h1        1 MOL      0.081170
     81 N9          1.9770    4.9340    0.4510 n         1 MOL     -0.806307
     82 C25         1.0320    4.5170    1.5510 c3        1 MOL      0.668415
     83 C26         1.1360    3.0150    1.9810 c         1 MOL      0.235904
     84 O13         1.9300    2.2490    1.3990 o         1 MOL     -0.333011
     85 C27        -0.3420    4.8090    1.0080 c3        1 MOL     -0.096025
     86 C28        -0.7430    6.2520    0.6210 ca        1 MOL     -0.004881
     87 C29        -1.2030    6.5240   -0.6950 ca        1 MOL     -0.137268
     88 C30        -0.4770    7.3920    1.4560 ca        1 MOL     -0.137268
     89 C31        -1.5770    7.8210   -1.0720 ca        1 MOL     -0.265659
     90 C32        -0.7160    8.7040    1.0330 ca        1 MOL     -0.265659
     91 C33        -1.3250    8.9230   -0.2010 ca        1 MOL      0.372509
     92 O14        -1.8920   10.0890   -0.5640 oh        1 MOL     -0.466636
     93 H37         1.6840    4.7720   -0.5010 hn        1 MOL      0.266524
     94 H38         1.1850    5.0990    2.4610 h1        1 MOL     -0.007266
     95 H39        -1.0470    4.5790    1.8030 hc        1 MOL      0.002016
     96 H40        -0.6460    4.0540    0.2830 hc        1 MOL      0.002016
     97 H41        -1.4790    5.6730   -1.3100 ha        1 MOL      0.115034
     98 H42        -0.1870    7.1120    2.4590 ha        1 MOL      0.115034
     99 H43        -1.9980    7.9630   -2.0550 ha        1 MOL      0.164849
    100 H44        -0.4600    9.5600    1.6270 ha        1 MOL      0.164849
    101 H45        -2.5810    9.9960   -1.2210 ho        1 MOL      0.356927
    102 N10         0.4820    2.5620    3.0340 n         1 MOL     -0.586374
    103 C34         0.2700    1.1160    3.4410 c3        1 MOL      0.136029
    104 C35         0.0880    0.1000    2.3040 c         1 MOL      0.334976
    105 O15         0.9340   -0.1930    1.4960 o         1 MOL     -0.486885
    106 C36         1.4450    0.6590    4.2680 c3        1 MOL      0.521994
    107 C37         1.2330   -0.8030    4.7790 c3        1 MOL     -0.036943
    108 C38         1.5740    1.5830    5.5470 c3        1 MOL     -0.444832
    109 C39        -0.0530   -1.0590    5.6780 c3        1 MOL     -0.121037
    110 H46        -0.0350    3.2780    3.5230 hn        1 MOL      0.290875
    111 H47        -0.6430    1.0800    4.0390 h1        1 MOL      0.044681
    112 H48         2.3360    0.6870    3.6410 hc        1 MOL     -0.096859
    113 H49         2.1360   -0.9840    5.3640 hc        1 MOL      0.006703
    114 H50         1.3590   -1.5290    3.9730 hc        1 MOL      0.006703
    115 H51         1.9030    2.5580    5.1940 hc        1 MOL      0.101596
    116 H52         0.5830    1.6430    6.0030 hc        1 MOL      0.101596
    117 H53         2.3770    1.2940    6.2250 hc        1 MOL      0.101596
    118 H54         0.2220   -1.8940    6.3090 hc        1 MOL      0.023819
    119 H55        -0.3200   -0.2010    6.2950 hc        1 MOL      0.023819
    120 H56        -0.8810   -1.2750    5.0000 hc        1 MOL      0.023819
    121 N11        -1.1540   -0.3990    2.2460 n         1 MOL     -0.345970
    122 C40        -1.5560   -1.2990    1.1680 c3        1 MOL     -0.029573
    123 C41        -3.0410   -1.2450    0.9850 c         1 MOL      0.607678
    124 O16        -3.7750   -1.8430    1.7830 o         1 MOL     -0.526179
    125 C42        -1.2060   -2.8030    1.6020 c3        1 MOL     -0.093344
    126 O17         0.1610   -2.9200    1.3950 oh        1 MOL     -0.303319
    127 H57        -1.8620    0.0670    2.7970 hn        1 MOL      0.278056
    128 H58        -1.0730   -0.9940    0.2410 h1        1 MOL      0.147228
    129 H59        -1.6570   -3.4880    0.8880 h1        1 MOL      0.116630
    130 H60        -1.3500   -3.0850    2.6440 h1        1 MOL      0.116630
    131 H61         0.5000   -2.0220    1.4510 ho        1 MOL      0.273865
    132 N12        -3.5260   -0.6800   -0.1410 n         1 MOL     -0.664060
    133 C43        -5.0120   -0.5190   -0.3140 c3        1 MOL      0.267811
    134 C44        -5.4280   -0.2270   -1.7710 c         1 MOL      0.507755
    135 O18        -4.7030    0.3050   -2.5800 o         1 MOL     -0.559451
    136 C45        -5.4400    0.7060    0.4980 c3        1 MOL     -0.566230
    137 H62        -2.8800   -0.3140   -0.8240 hn        1 MOL      0.296526
    138 H63        -5.5740   -1.3740    0.0590 h1        1 MOL      0.114422
    139 H64        -6.5070    0.6120    0.7010 hc        1 MOL      0.168498
    140 H65        -4.9460    0.8080    1.4690 hc        1 MOL      0.168498
    141 H66        -5.2400    1.5090   -0.2150 hc        1 MOL      0.168498
    142 N13        -6.6430   -0.5890   -2.2690 n         1 MOL     -0.580338
    143 C46        -7.8290   -1.0750   -1.5320 c3        1 MOL      0.284140
    144 C47        -9.0790   -0.4490   -2.1740 c         1 MOL      0.307866
    145 O19        -9.0120    0.0680   -3.3000 o         1 MOL     -0.494773
    146 C48        -7.7420   -2.5600   -1.6550 c3        1 MOL     -0.251215
    147 H67        -6.7880   -0.4150   -3.2540 hn        1 MOL      0.349389
    148 H68        -7.7920   -0.7960   -0.4820 h1        1 MOL     -0.045624
    149 H69        -7.6960   -2.7650   -2.7200 hc        1 MOL      0.073170
    150 H70        -6.8660   -2.9870   -1.1700 hc        1 MOL      0.073170
    151 H71        -8.6520   -3.0520   -1.3100 hc        1 MOL      0.073170
    152 N14       -10.2530   -0.4950   -1.4730 n         1 MOL     -0.052426
    153 C49       -10.4150   -1.1310   -0.1720 c3        1 MOL     -0.230683
    154 C50        -9.9120   -0.2720    0.9910 c         1 MOL      0.533223
    155 O20        -9.7120   -0.7040    2.1670 o         1 MOL     -0.553130
    156 C51       -11.8520   -1.5800    0.1310 c3        1 MOL      0.125626
    157 C52       -12.9680   -0.5430    0.2190 c3        1 MOL     -0.085550
    158 C53       -13.6180   -0.3010   -1.1490 c         1 MOL      0.561866
    159 O21       -14.7600   -0.8190   -1.2720 o         1 MOL     -0.611631
    160 O22       -12.9460    0.1100   -2.1520 o         1 MOL     -0.611631
    161 H72       -11.0710   -0.1190   -1.9440 hn        1 MOL      0.146972
    162 H73        -9.9450   -2.1180   -0.1890 h1        1 MOL      0.056143
    163 H74       -11.7900   -1.9700    1.1500 hc        1 MOL      0.021999
    164 H75       -12.0230   -2.3630   -0.5990 hc        1 MOL      0.021999
    165 H76       -12.6110    0.4010    0.6370 hc        1 MOL      0.002910
    166 H77       -13.6520   -1.0380    0.9030 hc        1 MOL      0.002910
    167 N15        -9.7840    1.0420    0.7440 n         1 MOL     -0.236787
    168 C54        -9.3820    2.0750    1.7810 c3        1 MOL     -0.175986
    169 H78        -8.5640    2.6820    1.3920 h1        1 MOL      0.091845
    170 H79       -10.2350    2.7170    2.0050 h1        1 MOL      0.091845
    171 H80        -9.0570    1.5700    2.6910 h1        1 MOL      0.091845
    172 H81       -10.0920    1.3880   -0.1590 hn        1 MOL      0.196759
    173 Ca1         2.4110    0.4470   -0.7030 Ca        1 MOL      1.784201
    174 O23         0.3280    1.9500   -1.2570 oh        1 MOL     -0.887143
    175 O24         0.4690   -1.2620   -1.8190 oh        1 MOL     -0.887143
    176 H82        -0.5890    1.9260   -0.9740 ho        1 MOL      0.419235
    177 H83        -0.3850   -1.3160   -2.2330 ho        1 MOL      0.419235
    178 H84         0.5110    2.8790   -1.3960 ho        1 MOL      0.419235
    179 H85         1.0760   -1.1110   -2.5380 ho        1 MOL      0.419235
@<TRIPOS>BOND
     1    1    2 1   
     2    1    4 1   
     3    1    5 1   
     4    1    6 1   
     5    2    3 2   
     6    2    7 1   
     7    7    8 1   
     8    7   15 1   
     9    8    9 1   
    10    8   11 1   
    11    8   16 1   
    12    9   10 2   
    13    9   19 1   
    14   11   12 1   
    15   11   17 1   
    16   11   18 1   
    17   12   13 1   
    18   12   14 1   
    19   19   20 1   
    20   19   28 1   
    21   20   21 1   
    22   20   23 1   
    23   20   29 1   
    24   21   22 2   
    25   21   41 1   
    26   23   24 1   
    27   23   30 1   
    28   23   31 1   
    29   24   25 1   
    30   24   32 1   
    31   24   33 1   
    32   25   26 1   
    33   25   34 1   
    34   25   35 1   
    35   26   27 1   
    36   26   36 1   
    37   26   37 1   
    38   27   38 1   
    39   27   39 1   
    40   27   40 1   
    41   41   42 1   
    42   41   49 1   
    43   42   43 1   
    44   42   45 1   
    45   42   50 1   
    46   43   44 2   
    47   43   53 1   
    48   45   46 1   
    49   45   51 1   
    50   45   52 1   
    51   46   47 1   
    52   46   48 1   
    53   53   54 1   
    54   53   57 1   
    55   54   55 1   
    56   54   58 1   
    57   54   59 1   
    58   55   56 2   
    59   55   60 1   
    60   60   61 1   
    61   60   68 1   
    62   61   62 1   
    63   61   64 1   
    64   61   69 1   
    65   62   63 2   
    66   62   74 1   
    67   64   65 1   
    68   64   70 1   
    69   64   71 1   
    70   65   66 1   
    71   65   67 2   
    72   66   72 1   
    73   66   73 1   
    74   74   75 1   
    75   74   78 1   
    76   75   76 1   
    77   75   79 1   
    78   75   80 1   
    79   76   77 2   
    80   76   81 1   
    81   81   82 1   
    82   81   93 1   
    83   82   83 1   
    84   82   85 1   
    85   82   94 1   
    86   83   84 2   
    87   83  102 1   
    88   85   86 1   
    89   85   95 1   
    90   85   96 1   
    91   86   87 ar  
    92   86   88 ar  
    93   87   89 ar  
    94   87   97 1   
    95   88   90 ar  
    96   88   98 1   
    97   89   91 ar  
    98   89   99 1   
    99   90   91 ar  
   100   90  100 1   
   101   91   92 1   
   102   92  101 1   
   103  102  103 1   
   104  102  110 1   
   105  103  104 1   
   106  103  106 1   
   107  103  111 1   
   108  104  105 2   
   109  104  121 1   
   110  106  107 1   
   111  106  108 1   
   112  106  112 1   
   113  107  109 1   
   114  107  113 1   
   115  107  114 1   
   116  108  115 1   
   117  108  116 1   
   118  108  117 1   
   119  109  118 1   
   120  109  119 1   
   121  109  120 1   
   122  121  122 1   
   123  121  127 1   
   124  122  123 1   
   125  122  125 1   
   126  122  128 1   
   127  123  124 2   
   128  123  132 1   
   129  125  126 1   
   130  125  129 1   
   131  125  130 1   
   132  126  131 1   
   133  132  133 1   
   134  132  137 1   
   135  133  134 1   
   136  133  136 1   
   137  133  138 1   
   138  134  135 2   
   139  134  142 1   
   140  136  139 1   
   141  136  140 1   
   142  136  141 1   
   143  142  143 1   
   144  142  147 1   
   145  143  144 1   
   146  143  146 1   
   147  143  148 1   
   148  144  145 2   
   149  144  152 1   
   150  146  149 1   
   151  146  150 1   
   152  146  151 1   
   153  152  153 1   
   154  152  161 1   
   155  153  154 1   
   156  153  156 1   
   157  153  162 1   
   158  154  155 2   
   159  154  167 1   
   160  156  157 1   
   161  156  163 1   
   162  156  164 1   
   163  157  158 1   
   164  157  165 1   
   165  157  166 1   
   166  158  159 1   
   167  158  160 1   
   168  167  168 1   
   169  167  172 1   
   170  168  169 1   
   171  168  170 1   
   172  168  171 1   
   173  174  176 1   
   174  174  178 1   
   175  175  177 1   
   176  175  179 1   
@<TRIPOS>SUBSTRUCTURE
     1 MOL         1 TEMP              0 ****  ****    0 ROOT
