@<TRIPOS>MOLECULE
MOL
  185   180     1     0     0
SMALL
resp


@<TRIPOS>ATOM
      1 C1          6.3910   -0.2880   -4.0400 c3        1 MOL     -0.587079
      2 C2          6.7620   -0.5490   -2.6180 c         1 MOL      0.713986
      3 O1          5.9190   -0.3950   -1.7770 o         1 MOL     -0.559034
      4 H1          5.3130   -0.1530   -4.1150 hc        1 MOL      0.159371
      5 H2          6.8950    0.6140   -4.3880 hc        1 MOL      0.159371
      6 H3          6.6950   -1.1340   -4.6570 hc        1 MOL      0.159371
      7 N1          8.0530   -0.9750   -2.3600 n         1 MOL     -0.553922
      8 C3          8.6130   -1.1900   -1.0210 c3        1 MOL     -0.012596
      9 C4          8.4400   -0.0700    0.0150 c         1 MOL      0.400879
     10 O2          8.3890   -0.3620    1.2520 o         1 MOL     -0.478365
     11 C5          8.2640   -2.5970   -0.4290 c3        1 MOL     -0.165247
     12 C6          8.3460   -3.7610   -1.4270 c         1 MOL      0.690705
     13 O3          7.3420   -4.5520   -1.3210 o         1 MOL     -0.651917
     14 O4          9.3680   -3.9780   -2.1560 o         1 MOL     -0.651917
     15 H4          8.7370   -0.8290   -3.0730 hn        1 MOL      0.320787
     16 H5          9.6810   -1.2560   -1.2430 h1        1 MOL      0.088071
     17 H6          7.2820   -2.5490    0.0550 hc        1 MOL      0.070549
     18 H7          8.8330   -2.9250    0.4430 hc        1 MOL      0.070549
     19 N2          8.2170    1.1800   -0.3950 n         1 MOL     -0.386074
     20 C7          7.8040    2.3800    0.4160 c3        1 MOL     -0.004004
     21 C8          6.3510    2.3110    0.9100 c         1 MOL      0.610732
     22 O5          5.9190    3.2630    1.5850 o         1 MOL     -0.577757
     23 C9          8.1230    3.6310   -0.3920 c3        1 MOL     -0.012399
     24 C10         9.5960    3.9410   -0.5880 c3        1 MOL      0.000578
     25 C11         9.8450    5.1390   -1.5330 c3        1 MOL      0.172063
     26 C12        11.3630    5.1600   -2.0230 c3        1 MOL      0.059309
     27 N3         11.8360    6.4130   -2.5720 n4        1 MOL     -0.325732
     28 H8          8.1310    1.1970   -1.3990 hn        1 MOL      0.253052
     29 H9          8.3590    2.3010    1.3510 h1        1 MOL      0.117643
     30 H10         7.6840    4.5360    0.0400 hc        1 MOL      0.015070
     31 H11         7.6340    3.3960   -1.3430 hc        1 MOL      0.015070
     32 H12        10.0880    3.0520   -0.9800 hc        1 MOL      0.000510
     33 H13         9.9210    4.2120    0.4150 hc        1 MOL      0.000510
     34 H14         9.4620    6.0830   -1.1430 hc        1 MOL     -0.031638
     35 H15         9.3170    4.8090   -2.4350 hc        1 MOL     -0.031638
     36 H16        11.5470    4.3910   -2.7710 hx        1 MOL      0.051145
     37 H17        11.8880    5.0030   -1.0880 hx        1 MOL      0.051145
     38 H18        12.8030    6.3450   -2.8400 hn        1 MOL      0.296877
     39 H19        11.2660    6.7430   -3.3390 hn        1 MOL      0.296877
     40 H20        11.7970    7.0750   -1.8240 hn        1 MOL      0.296877
     41 N4          5.5580    1.2800    0.6420 n         1 MOL     -0.515232
     42 C13         4.2080    1.2180    1.1580 c3        1 MOL     -0.019343
     43 C14         4.1480    1.1430    2.7190 c         1 MOL      0.559268
     44 O6          5.0480    0.5240    3.3290 o         1 MOL     -0.517302
     45 C15         3.4480    0.0560    0.5000 c3        1 MOL     -0.050482
     46 C16         1.8630    0.1960    0.6360 c         1 MOL      0.619860
     47 O7          1.2040    0.3570   -0.4880 o         1 MOL     -0.741066
     48 O8          1.2970    0.3880    1.7350 o         1 MOL     -0.741066
     49 H21         5.8590    0.5460    0.0140 hn        1 MOL      0.376127
     50 H22         3.6710    2.1330    0.9040 h1        1 MOL      0.051332
     51 H23         3.7790   -0.9000    0.9170 hc        1 MOL      0.079307
     52 H24         3.6980    0.0670   -0.5610 hc        1 MOL      0.079307
     53 N5          3.1350    1.6300    3.3710 n         1 MOL     -0.369614
     54 C17         2.9620    1.5250    4.8330 c3        1 MOL     -0.041283
     55 C18         2.0470    0.4230    5.3500 c         1 MOL      0.448692
     56 O9          2.0820    0.0040    6.5620 o         1 MOL     -0.555169
     57 H25         2.4750    2.1940    2.8490 hn        1 MOL      0.269374
     58 H26         2.4550    2.4260    5.1880 h1        1 MOL      0.084206
     59 H27         3.8830    1.4630    5.4050 h1        1 MOL      0.084206
     60 N6          1.3040   -0.2240    4.4330 n         1 MOL     -0.301908
     61 C19         0.5570   -1.4660    4.7370 c3        1 MOL      0.006253
     62 C20         0.7450   -2.6330    3.7350 c         1 MOL      0.477503
     63 O10        -0.1160   -3.5200    3.7380 o         1 MOL     -0.505056
     64 C21        -0.9680   -1.0510    5.0670 c3        1 MOL     -0.323972
     65 C22        -1.8760   -0.7400    3.8810 c         1 MOL      0.825627
     66 N7         -3.1720   -0.7730    4.0780 n         1 MOL     -0.886879
     67 O11        -1.4340   -0.3680    2.7700 o         1 MOL     -0.721651
     68 H28         1.2550    0.1920    3.5080 hn        1 MOL      0.300281
     69 H29         0.8470   -1.8160    5.7240 h1        1 MOL      0.121678
     70 H30        -1.0340   -0.3330    5.8820 hc        1 MOL      0.105636
     71 H31        -1.3410   -2.0080    5.4300 hc        1 MOL      0.105636
     72 H32        -3.6270   -1.0730    4.9340 hn        1 MOL      0.379513
     73 H33        -3.7940   -0.6030    3.3050 hn        1 MOL      0.379513
     74 N8          1.7510   -2.5040    2.8450 n         1 MOL     -0.309972
     75 C23         2.1420   -3.5790    1.9640 c3        1 MOL     -0.062892
     76 C24         1.1860   -4.0060    0.9210 c         1 MOL      0.493712
     77 O12         1.1470   -5.1820    0.6200 o         1 MOL     -0.525086
     78 H34         2.2890   -1.6560    2.8410 hn        1 MOL      0.202704
     79 H35         2.4510   -4.4230    2.5870 h1        1 MOL      0.089682
     80 H36         3.0370   -3.1720    1.4970 h1        1 MOL      0.089682
     81 N9          0.5140   -3.0670    0.3190 n         1 MOL     -0.328150
     82 C25        -0.3900   -3.1620   -0.7850 c3        1 MOL      0.219575
     83 C26        -1.6500   -2.3070   -0.6790 c         1 MOL      0.455719
     84 O13        -1.5680   -1.2160   -0.0610 o         1 MOL     -0.434865
     85 C27         0.3060   -2.8570   -2.1420 c3        1 MOL     -0.221103
     86 C28         1.6890   -3.5760   -2.3210 ca        1 MOL      0.031005
     87 C29         1.8360   -4.6910   -3.1210 ca        1 MOL     -0.110240
     88 C30         2.7830   -2.8330   -1.9030 ca        1 MOL     -0.110240
     89 C31         3.1310   -5.2110   -3.3600 ca        1 MOL     -0.348831
     90 C32         4.0110   -3.4150   -1.9800 ca        1 MOL     -0.348831
     91 C33         4.1710   -4.5990   -2.7460 ca        1 MOL      0.513873
     92 O14         5.3970   -5.0980   -2.9210 oh        1 MOL     -0.578423
     93 H37         0.6060   -2.1130    0.6540 hn        1 MOL      0.227178
     94 H38        -0.6640   -4.2190   -0.8700 h1        1 MOL      0.031253
     95 H39         0.4740   -1.7820   -2.1790 hc        1 MOL      0.067896
     96 H40        -0.3260   -3.2210   -2.9500 hc        1 MOL      0.067896
     97 H41         1.0130   -5.0270   -3.7350 ha        1 MOL      0.096776
     98 H42         2.6460   -1.8410   -1.5130 ha        1 MOL      0.096776
     99 H43         3.3080   -6.1070   -3.9280 ha        1 MOL      0.163737
    100 H44         4.8120   -2.7810   -1.6320 ha        1 MOL      0.163737
    101 H45         5.9560   -4.6840   -2.2630 ho        1 MOL      0.412919
    102 N10        -2.7410   -2.6100   -1.4010 n         1 MOL     -0.708772
    103 C34        -3.8720   -1.6280   -1.5690 c3        1 MOL      0.078881
    104 C35        -4.9230   -1.6960   -0.4040 c         1 MOL      0.591950
    105 O15        -5.3400   -0.6360    0.0380 o         1 MOL     -0.499198
    106 C36        -4.5870   -1.9230   -2.8460 c3        1 MOL      0.232313
    107 C37        -3.6370   -2.2520   -3.9940 c3        1 MOL     -0.174719
    108 C38        -5.4020   -0.6760   -3.2590 c3        1 MOL     -0.491259
    109 C39        -2.5270   -1.1520   -4.3120 c3        1 MOL     -0.102275
    110 H46        -2.6620   -3.4730   -1.9210 hn        1 MOL      0.361870
    111 H47        -3.5260   -0.5910   -1.6320 h1        1 MOL      0.083775
    112 H48        -5.2230   -2.7970   -2.6590 hc        1 MOL     -0.048568
    113 H49        -4.2510   -2.5460   -4.8550 hc        1 MOL      0.053645
    114 H50        -3.0170   -3.1270   -3.8100 hc        1 MOL      0.053645
    115 H51        -4.8350    0.2530   -3.2040 hc        1 MOL      0.125280
    116 H52        -5.8720   -0.8230   -4.2380 hc        1 MOL      0.125280
    117 H53        -6.2680   -0.5800   -2.6070 hc        1 MOL      0.125280
    118 H54        -1.8620   -1.4350   -5.1290 hc        1 MOL      0.053871
    119 H55        -2.9430   -0.2260   -4.7160 hc        1 MOL      0.053871
    120 H56        -1.8270   -0.8770   -3.5150 hc        1 MOL      0.053871
    121 N11        -5.5000   -2.8460    0.0390 n         1 MOL     -0.340133
    122 C40        -6.6480   -2.9000    0.9490 c3        1 MOL     -0.019630
    123 C41        -7.9850   -2.2140    0.4950 c         1 MOL      0.373294
    124 O16        -8.6240   -1.6470    1.3760 o         1 MOL     -0.462984
    125 C42        -6.9320   -4.3650    1.1850 c3        1 MOL      0.207580
    126 O17        -5.8450   -5.1370    1.5230 oh        1 MOL     -0.605700
    127 H57        -5.1970   -3.7640   -0.2440 hn        1 MOL      0.291485
    128 H58        -6.4750   -2.3180    1.8570 h1        1 MOL      0.102830
    129 H59        -7.2890   -4.7360    0.2270 h1        1 MOL      0.014763
    130 H60        -7.7300   -4.4390    1.9230 h1        1 MOL      0.014763
    131 H61        -6.1830   -5.8780    2.0220 ho        1 MOL      0.421624
    132 N12        -8.2230   -2.1410   -0.8110 n         1 MOL     -0.437794
    133 C43        -9.1760   -1.2180   -1.4600 c3        1 MOL      0.307960
    134 C44        -9.1650    0.2470   -0.9680 c         1 MOL      0.438315
    135 O18       -10.1190    0.9400   -1.1810 o         1 MOL     -0.509831
    136 C45       -10.4810   -1.9980   -1.6180 c3        1 MOL     -0.492735
    137 H62        -7.6210   -2.5760   -1.4870 hn        1 MOL      0.275989
    138 H63        -8.7690   -1.1990   -2.4610 h1        1 MOL      0.035002
    139 H64       -10.8700   -2.3070   -0.6490 hc        1 MOL      0.137819
    140 H65       -11.1920   -1.3040   -2.0650 hc        1 MOL      0.137819
    141 H66       -10.3340   -2.8720   -2.2590 hc        1 MOL      0.137819
    142 N13        -8.0060    0.6570   -0.4170 n         1 MOL     -0.426808
    143 C46        -7.8190    2.0280    0.1970 c3        1 MOL      0.569654
    144 C47        -6.7710    2.7680   -0.6120 c         1 MOL      0.106024
    145 O19        -5.9970    2.2430   -1.3950 o         1 MOL     -0.376319
    146 C48        -7.5510    1.8280    1.6730 c3        1 MOL     -0.419985
    147 H67        -7.2470    0.0020   -0.3540 hn        1 MOL      0.137209
    148 H68        -8.7520    2.5730    0.0990 h1        1 MOL     -0.042549
    149 H69        -8.3820    1.2660    2.0900 hc        1 MOL      0.110581
    150 H70        -6.7270    1.1290    1.7990 hc        1 MOL      0.110581
    151 H71        -7.3900    2.7760    2.1870 hc        1 MOL      0.110581
    152 N14        -6.7620    4.1200   -0.3830 n         1 MOL     -0.186433
    153 C49        -5.9010    5.1750   -0.9300 c3        1 MOL     -0.053987
    154 C50        -6.0370    5.2670   -2.4450 c         1 MOL      0.323198
    155 O20        -5.1500    5.8660   -3.1020 o         1 MOL     -0.492828
    156 C51        -4.3990    4.8680   -0.5660 c3        1 MOL      0.227606
    157 C52        -4.1430    4.6190    0.9250 c3        1 MOL     -0.403911
    158 C53        -2.6420    4.2500    1.2270 c         1 MOL      0.864816
    159 O21        -1.9980    3.6090    0.3940 o         1 MOL     -0.717321
    160 O22        -2.2600    4.5570    2.3620 o         1 MOL     -0.717321
    161 H72        -7.5390    4.4270    0.1870 hn        1 MOL      0.201817
    162 H73        -6.3110    6.1090   -0.5490 h1        1 MOL      0.099524
    163 H74        -3.6610    5.6100   -0.8570 hc        1 MOL     -0.006154
    164 H75        -4.2040    3.9380   -1.0900 hc        1 MOL     -0.006154
    165 H76        -4.8370    3.8830    1.3410 hc        1 MOL      0.043232
    166 H77        -4.5190    5.5340    1.4010 hc        1 MOL      0.043232
    167 N15        -7.0710    4.6870   -3.1520 n         1 MOL     -0.186751
    168 C54        -7.1310    4.5300   -4.5920 c3        1 MOL     -0.117396
    169 H78        -7.9030    5.1850   -4.9960 h1        1 MOL      0.076999
    170 H79        -6.1670    4.7930   -5.0270 h1        1 MOL      0.076999
    171 H80        -7.3700    3.4950   -4.8360 h1        1 MOL      0.076999
    172 H81        -7.9060    4.4610   -2.6250 hn        1 MOL      0.187510
    173 Ca1        -1.1500    1.3030    0.6180 Ca        1 MOL      1.723236
    174 O23        -2.3430    1.9220   -1.7590 oh        1 MOL     -0.796234
    175 H82        -1.7600    2.5970   -2.1040 ho        1 MOL      0.387688
    176 H83        -3.2200    2.2230   -1.9900 ho        1 MOL      0.387688
    177 O24        -0.8570    2.3590    2.9550 oh        1 MOL     -0.796234
    178 H84        -0.9600    2.1980    3.8960 ho        1 MOL      0.387688
    179 H85        -1.3440    3.1770    2.8040 ho        1 MOL      0.387688
    180 O25        -3.6630    0.8640    1.2140 oh        1 MOL     -0.796234
    181 H86        -3.9560    1.3080    2.0120 ho        1 MOL      0.387688
    182 H87        -4.4710    0.6340    0.7630 ho        1 MOL      0.387688
    183 O26         0.8110    3.2890    0.1290 oh        1 MOL     -0.796234
    184 H88         1.5570    2.8210   -0.2620 ho        1 MOL      0.387688
    185 H89         0.7420    4.0960   -0.3830 ho        1 MOL      0.387688
@<TRIPOS>BOND
     1    1    2 1   
     2    1    4 1   
     3    1    5 1   
     4    1    6 1   
     5    2    3 2   
     6    2    7 1   
     7    7    8 1   
     8    7   15 1   
     9    8    9 1   
    10    8   11 1   
    11    8   16 1   
    12    9   10 2   
    13    9   19 1   
    14   11   12 1   
    15   11   17 1   
    16   11   18 1   
    17   12   13 1   
    18   12   14 1   
    19   19   20 1   
    20   19   28 1   
    21   20   21 1   
    22   20   23 1   
    23   20   29 1   
    24   21   22 2   
    25   21   41 1   
    26   23   24 1   
    27   23   30 1   
    28   23   31 1   
    29   24   25 1   
    30   24   32 1   
    31   24   33 1   
    32   25   26 1   
    33   25   34 1   
    34   25   35 1   
    35   26   27 1   
    36   26   36 1   
    37   26   37 1   
    38   27   38 1   
    39   27   39 1   
    40   27   40 1   
    41   41   42 1   
    42   41   49 1   
    43   42   43 1   
    44   42   45 1   
    45   42   50 1   
    46   43   44 2   
    47   43   53 1   
    48   45   46 1   
    49   45   51 1   
    50   45   52 1   
    51   46   47 1   
    52   46   48 1   
    53   53   54 1   
    54   53   57 1   
    55   54   55 1   
    56   54   58 1   
    57   54   59 1   
    58   55   56 2   
    59   55   60 1   
    60   60   61 1   
    61   60   68 1   
    62   61   62 1   
    63   61   64 1   
    64   61   69 1   
    65   62   63 2   
    66   62   74 1   
    67   64   65 1   
    68   64   70 1   
    69   64   71 1   
    70   65   66 1   
    71   65   67 2   
    72   66   72 1   
    73   66   73 1   
    74   74   75 1   
    75   74   78 1   
    76   75   76 1   
    77   75   79 1   
    78   75   80 1   
    79   76   77 2   
    80   76   81 1   
    81   81   82 1   
    82   81   93 1   
    83   82   83 1   
    84   82   85 1   
    85   82   94 1   
    86   83   84 2   
    87   83  102 1   
    88   85   86 1   
    89   85   95 1   
    90   85   96 1   
    91   86   87 ar  
    92   86   88 ar  
    93   87   89 ar  
    94   87   97 1   
    95   88   90 ar  
    96   88   98 1   
    97   89   91 ar  
    98   89   99 1   
    99   90   91 ar  
   100   90  100 1   
   101   91   92 1   
   102   92  101 1   
   103  102  103 1   
   104  102  110 1   
   105  103  104 1   
   106  103  106 1   
   107  103  111 1   
   108  104  105 2   
   109  104  121 1   
   110  106  107 1   
   111  106  108 1   
   112  106  112 1   
   113  107  109 1   
   114  107  113 1   
   115  107  114 1   
   116  108  115 1   
   117  108  116 1   
   118  108  117 1   
   119  109  118 1   
   120  109  119 1   
   121  109  120 1   
   122  121  122 1   
   123  121  127 1   
   124  122  123 1   
   125  122  125 1   
   126  122  128 1   
   127  123  124 2   
   128  123  132 1   
   129  125  126 1   
   130  125  129 1   
   131  125  130 1   
   132  126  131 1   
   133  132  133 1   
   134  132  137 1   
   135  133  134 1   
   136  133  136 1   
   137  133  138 1   
   138  134  135 2   
   139  134  142 1   
   140  136  139 1   
   141  136  140 1   
   142  136  141 1   
   143  142  143 1   
   144  142  147 1   
   145  143  144 1   
   146  143  146 1   
   147  143  148 1   
   148  144  145 2   
   149  144  152 1   
   150  146  149 1   
   151  146  150 1   
   152  146  151 1   
   153  152  153 1   
   154  152  161 1   
   155  153  154 1   
   156  153  156 1   
   157  153  162 1   
   158  154  155 2   
   159  154  167 1   
   160  156  157 1   
   161  156  163 1   
   162  156  164 1   
   163  157  158 1   
   164  157  165 1   
   165  157  166 1   
   166  158  159 1   
   167  158  160 1   
   168  167  168 1   
   169  167  172 1   
   170  168  169 1   
   171  168  170 1   
   172  168  171 1   
   173  174  175 1   
   174  174  176 1   
   175  177  178 1   
   176  177  179 1   
   177  180  181 1   
   178  180  182 1   
   179  183  184 1   
   180  183  185 1   
@<TRIPOS>SUBSTRUCTURE
     1 MOL         1 TEMP              0 ****  ****    0 ROOT
