@<TRIPOS>MOLECULE
MOL
  188   182     1     0     0
SMALL
resp


@<TRIPOS>ATOM
      1 C1          5.3540   -0.9620    5.7620 c3        1 MOL     -0.344002
      2 C2          4.4740   -0.5480    4.5780 c         1 MOL      0.735158
      3 O1          3.3510   -0.0900    4.8390 o         1 MOL     -0.582358
      4 H1          5.4570   -0.1220    6.4480 hc        1 MOL      0.087628
      5 H2          4.8930   -1.8020    6.2830 hc        1 MOL      0.087628
      6 H3          6.3380   -1.2560    5.3990 hc        1 MOL      0.087628
      7 N1          4.7490   -1.0090    3.3620 n         1 MOL     -0.568950
      8 C3          3.8260   -0.8600    2.2190 c3        1 MOL     -0.041741
      9 C4          3.7840   -2.0000    1.2060 c         1 MOL      0.418186
     10 O2          2.7800   -2.1040    0.4420 o         1 MOL     -0.531277
     11 C5          4.2410    0.4080    1.3900 c3        1 MOL     -0.123369
     12 C6          5.6490    0.3400    0.6640 c         1 MOL      0.619299
     13 O3          5.9020   -0.4290   -0.2690 o         1 MOL     -0.619282
     14 O4          6.5450    1.0980    1.0500 o         1 MOL     -0.619282
     15 H4          5.5100   -1.6520    3.2120 hn        1 MOL      0.326098
     16 H5          2.8150   -0.6550    2.5780 h1        1 MOL      0.113286
     17 H6          4.2160    1.1900    2.1560 hc        1 MOL      0.039135
     18 H7          3.4500    0.5350    0.6640 hc        1 MOL      0.039135
     19 N2          4.7820   -2.8910    1.2870 n         1 MOL     -0.492438
     20 C7          4.6340   -4.1920    0.5990 c3        1 MOL      0.433115
     21 C8          4.9330   -4.2280   -0.8940 c         1 MOL      0.282260
     22 O5          5.6950   -5.0970   -1.3100 o         1 MOL     -0.524255
     23 C9          5.4840   -5.1950    1.4320 c3        1 MOL     -0.341608
     24 C10         4.9380   -5.2640    2.8850 c3        1 MOL      0.278399
     25 C11         5.6060   -6.4650    3.5870 c3        1 MOL     -0.181874
     26 C12         5.0450   -6.5620    5.0570 c3        1 MOL      0.002312
     27 N3          5.8380   -7.6560    5.8090 n4        1 MOL     -0.217015
     28 H8          5.5850   -2.7750    1.8860 hn        1 MOL      0.336839
     29 H9          3.6140   -4.5140    0.7610 h1        1 MOL      0.013037
     30 H10         6.5050   -4.8410    1.4740 hc        1 MOL      0.088368
     31 H11         5.3060   -6.1770    0.9810 hc        1 MOL      0.088368
     32 H12         3.8510   -5.2770    2.8470 hc        1 MOL     -0.083951
     33 H13         5.1310   -4.3220    3.3960 hc        1 MOL     -0.083951
     34 H14         6.6900   -6.4270    3.6390 hc        1 MOL      0.084828
     35 H15         5.2920   -7.3210    2.9850 hc        1 MOL      0.084828
     36 H16         4.0650   -7.0030    4.9470 hx        1 MOL      0.095941
     37 H17         5.0480   -5.6110    5.6000 hx        1 MOL      0.095941
     38 H18         6.7570   -7.3420    6.1060 hn        1 MOL      0.271908
     39 H19         5.3660   -7.8820    6.6720 hn        1 MOL      0.271908
     40 H20         5.9590   -8.4380    5.1800 hn        1 MOL      0.271908
     41 N4          4.4470   -3.2660   -1.7120 n         1 MOL     -0.104439
     42 C13         4.5510   -3.1370   -3.1890 c3        1 MOL     -0.094681
     43 C14         4.8370   -1.7430   -3.7170 c         1 MOL      0.550789
     44 O6          4.4630   -1.3420   -4.8330 o         1 MOL     -0.549296
     45 C15         3.3250   -3.7450   -3.8240 c3        1 MOL     -0.244747
     46 C16         2.0080   -3.1470   -3.2130 c         1 MOL      0.797454
     47 O7          0.9700   -3.7070   -3.5010 o         1 MOL     -0.742213
     48 O8          1.9080   -2.2120   -2.3560 o         1 MOL     -0.742213
     49 H21         3.7880   -2.6210   -1.2970 hn        1 MOL      0.136677
     50 H22         5.4120   -3.6990   -3.5360 h1        1 MOL      0.120258
     51 H23         3.2860   -4.8320   -3.7650 hc        1 MOL      0.094264
     52 H24         3.2970   -3.6850   -4.9130 hc        1 MOL      0.094264
     53 N5          5.4120   -0.8720   -2.8710 n         1 MOL     -0.463834
     54 C17         5.4750    0.5890   -3.0840 c3        1 MOL      0.086371
     55 C18         6.6780    1.1370   -3.8030 c         1 MOL      0.635987
     56 O9          7.4470    0.3640   -4.4190 o         1 MOL     -0.554682
     57 H25         5.6910   -1.3070   -2.0050 hn        1 MOL      0.271291
     58 H26         5.4340    1.1870   -2.1810 h1        1 MOL      0.056167
     59 H27         4.6070    0.9040   -3.6520 h1        1 MOL      0.056167
     60 N6          6.8240    2.4560   -3.8330 n         1 MOL     -0.662508
     61 C19         6.0360    3.4680   -3.1990 c3        1 MOL      0.276100
     62 C20         6.2940    3.5370   -1.6650 c         1 MOL      0.432939
     63 O10         7.4440    3.6420   -1.2090 o         1 MOL     -0.467490
     64 C21         6.4210    4.9040   -3.7960 c3        1 MOL     -0.222827
     65 C22         5.2750    5.8000   -3.5080 c         1 MOL      0.656807
     66 N7          4.1550    5.6280   -4.2300 n         1 MOL     -0.811666
     67 O11         5.2480    6.6340   -2.6310 o         1 MOL     -0.538880
     68 H28         7.7050    2.7150   -4.2770 hn        1 MOL      0.333752
     69 H29         4.9830    3.2500   -3.3740 h1        1 MOL     -0.004981
     70 H30         6.5520    4.9120   -4.8770 hc        1 MOL      0.086001
     71 H31         7.3240    5.3210   -3.3500 hc        1 MOL      0.086001
     72 H32         4.0340    4.8500   -4.8600 hn        1 MOL      0.363558
     73 H33         3.3960    6.2700   -4.0350 hn        1 MOL      0.363558
     74 N8          5.2320    3.6730   -0.8300 n         1 MOL     -0.413517
     75 C23         3.7960    3.8130   -1.1410 c3        1 MOL      0.108628
     76 C24         2.8710    3.9240    0.0870 c         1 MOL      0.769642
     77 O12         3.3790    3.9270    1.1920 o         1 MOL     -0.541734
     78 H34         5.4410    3.4480    0.1260 hn        1 MOL      0.266037
     79 H35         3.4340    2.9150   -1.6330 h1        1 MOL     -0.030440
     80 H36         3.6410    4.6090   -1.8710 h1        1 MOL     -0.030440
     81 N9          1.5610    4.1080   -0.0590 n         1 MOL     -0.827532
     82 C25         0.5200    4.2460    0.9520 c3        1 MOL      0.448133
     83 C26        -0.6960    3.2930    0.6300 c         1 MOL      0.466772
     84 O13        -0.7360    2.6440   -0.4020 o         1 MOL     -0.567434
     85 C27         0.0760    5.7150    0.9120 c3        1 MOL     -0.141843
     86 C28        -0.6840    6.3130    2.0760 ca        1 MOL     -0.071267
     87 C29        -2.0640    6.6510    1.9880 ca        1 MOL     -0.044055
     88 C30        -0.1010    6.4720    3.3250 ca        1 MOL     -0.044055
     89 C31        -2.8060    7.0000    3.1500 ca        1 MOL     -0.361632
     90 C32        -0.7680    6.8590    4.5060 ca        1 MOL     -0.361632
     91 C33        -2.1250    7.2250    4.3890 ca        1 MOL      0.450266
     92 O14        -2.7400    7.6740    5.5870 oh        1 MOL     -0.538993
     93 H37         1.2690    3.9870   -1.0250 hn        1 MOL      0.331121
     94 H38         0.9480    3.9220    1.8980 h1        1 MOL     -0.021939
     95 H39        -0.4340    5.9270   -0.0250 hc        1 MOL      0.088414
     96 H40         0.9910    6.3120    0.8610 hc        1 MOL      0.088414
     97 H41        -2.5930    6.3790    1.0850 ha        1 MOL      0.100727
     98 H42         0.9470    6.2110    3.3650 ha        1 MOL      0.100727
     99 H43        -3.8720    7.1340    3.0710 ha        1 MOL      0.175482
    100 H44        -0.2900    6.9690    5.4720 ha        1 MOL      0.175482
    101 H45        -2.1540    7.5890    6.3390 ho        1 MOL      0.371214
    102 N10        -1.6620    3.1890    1.5230 n         1 MOL     -0.331534
    103 C34        -2.8730    2.3610    1.5620 c3        1 MOL     -0.030495
    104 C35        -3.9950    3.0480    0.7860 c         1 MOL      0.471280
    105 O15        -4.0630    4.2940    0.7850 o         1 MOL     -0.466426
    106 C36        -3.3030    2.0080    3.0380 c3        1 MOL      0.189250
    107 C37        -2.6000    0.8590    3.6810 c3        1 MOL     -0.040116
    108 C38        -3.2320    3.2790    3.9550 c3        1 MOL     -0.445133
    109 C39        -2.7670   -0.5300    2.9410 c3        1 MOL     -0.129869
    110 H46        -1.5680    3.8300    2.3030 hn        1 MOL      0.169814
    111 H47        -2.6200    1.4120    1.0820 h1        1 MOL      0.109369
    112 H48        -4.3060    1.6290    2.8690 hc        1 MOL      0.011273
    113 H49        -2.9860    0.6070    4.6650 hc        1 MOL      0.003198
    114 H50        -1.5390    1.1100    3.7250 hc        1 MOL      0.003198
    115 H51        -3.8840    3.0150    4.7890 hc        1 MOL      0.124099
    116 H52        -2.2290    3.6010    4.2540 hc        1 MOL      0.124099
    117 H53        -3.5860    4.1130    3.3650 hc        1 MOL      0.124099
    118 H54        -3.8340   -0.7260    2.9850 hc        1 MOL      0.039974
    119 H55        -2.3390   -0.4100    1.9550 hc        1 MOL      0.039974
    120 H56        -2.2520   -1.3510    3.4390 hc        1 MOL      0.039974
    121 N11        -4.8200    2.2530    0.1440 n         1 MOL     -0.196501
    122 C40        -5.8400    2.5770   -0.8630 c3        1 MOL     -0.275833
    123 C41        -6.1510    1.3260   -1.6890 c         1 MOL      0.716253
    124 O16        -6.2350    0.1720   -1.1420 o         1 MOL     -0.453567
    125 C42        -7.0940    3.1670   -0.2400 c3        1 MOL      0.211328
    126 O17        -7.4490    2.4830    0.9280 oh        1 MOL     -0.607267
    127 H57        -4.6100    1.2700    0.1710 hn        1 MOL      0.166147
    128 H58        -5.4140    3.3140   -1.5430 h1        1 MOL      0.118161
    129 H59        -7.8870    3.0950   -0.9870 h1        1 MOL      0.017675
    130 H60        -6.9120    4.2130   -0.0060 h1        1 MOL      0.017675
    131 H61        -8.2340    2.8520    1.3590 ho        1 MOL      0.419364
    132 N12        -6.4650    1.5240   -2.9840 n         1 MOL     -0.558066
    133 C43        -6.7750    0.4800   -4.0040 c3        1 MOL      0.093301
    134 C44        -7.8900   -0.5940   -3.6220 c         1 MOL      0.466174
    135 O18        -7.9070   -1.6750   -4.1820 o         1 MOL     -0.452182
    136 C45        -5.4490   -0.2830   -4.4070 c3        1 MOL     -0.301168
    137 H62        -6.4430    2.4390   -3.4080 hn        1 MOL      0.324629
    138 H63        -7.0790    0.9900   -4.9230 h1        1 MOL      0.087046
    139 H64        -5.5960   -0.7160   -5.3970 hc        1 MOL      0.105212
    140 H65        -4.5700    0.3470   -4.2920 hc        1 MOL      0.105212
    141 H66        -5.2200   -1.1120   -3.7350 hc        1 MOL      0.105212
    142 N13        -8.6790   -0.3050   -2.6260 n         1 MOL     -0.600447
    143 C46        -9.4550   -1.2600   -1.7590 c3        1 MOL      0.490375
    144 C47        -8.7740   -2.4660   -1.0940 c         1 MOL      0.270609
    145 O19        -9.3500   -3.5780   -1.0710 o         1 MOL     -0.445681
    146 C48       -10.7180   -1.8130   -2.5170 c3        1 MOL     -0.485544
    147 H67        -8.6210    0.6270   -2.2270 hn        1 MOL      0.308581
    148 H68        -9.7890   -0.6650   -0.9110 h1        1 MOL     -0.036371
    149 H69       -10.3820   -2.6900   -3.0630 hc        1 MOL      0.129917
    150 H70       -11.4320   -2.2370   -1.8150 hc        1 MOL      0.129917
    151 H71       -11.2170   -1.0140   -3.0720 hc        1 MOL      0.129917
    152 N14        -7.4850   -2.3140   -0.6780 n         1 MOL     -0.420023
    153 C49        -6.5830   -3.4410   -0.2680 c3        1 MOL      0.410814
    154 C50        -7.0180   -4.1150    1.0250 c         1 MOL      0.241916
    155 O20        -7.2030   -5.3430    1.0450 o         1 MOL     -0.484659
    156 C51        -5.1550   -2.8500   -0.0840 c3        1 MOL     -0.220927
    157 C52        -4.0430   -3.8320    0.3140 c3        1 MOL      0.015594
    158 C53        -2.6160   -3.4090   -0.1070 c         1 MOL      0.585772
    159 O21        -2.2230   -2.2090   -0.0180 o         1 MOL     -0.699551
    160 O22        -1.7440   -4.1980   -0.4090 o         1 MOL     -0.699551
    161 H72        -7.0700   -1.4060   -0.8340 hn        1 MOL      0.185821
    162 H73        -6.6280   -4.1860   -1.0560 h1        1 MOL      0.045856
    163 H74        -5.1910   -2.0540    0.6550 hc        1 MOL      0.036367
    164 H75        -4.9710   -2.4060   -1.0600 hc        1 MOL      0.036367
    165 H76        -4.2460   -4.8280   -0.1020 hc        1 MOL      0.006261
    166 H77        -3.9770   -3.9210    1.3910 hc        1 MOL      0.006261
    167 N15        -7.2330   -3.3460    2.1110 n         1 MOL     -0.092721
    168 C54        -7.6040   -3.9180    3.3650 c3        1 MOL     -0.396654
    169 H78        -8.5560   -4.4390    3.2590 h1        1 MOL      0.139435
    170 H79        -6.8370   -4.6230    3.6850 h1        1 MOL      0.139435
    171 H80        -7.7050   -3.1280    4.1100 h1        1 MOL      0.139435
    172 H81        -7.1250   -2.3400    2.0950 hn        1 MOL      0.199895
    173 Ca1         0.3280   -2.2170   -0.3250 Ca        1 MOL      1.800936
    174 O23        -0.9920   -2.0870   -2.7100 oh        1 MOL     -0.874972
    175 O24         1.1630   -4.8910   -0.7010 oh        1 MOL     -0.874972
    176 H82        -0.3530   -2.7330   -3.0250 ho        1 MOL      0.425640
    177 H83         0.8060   -5.4560   -0.0080 ho        1 MOL      0.425640
    178 H84        -1.8350   -2.4530   -2.9710 ho        1 MOL      0.425640
    179 H85         1.3660   -5.4930   -1.4160 ho        1 MOL      0.425640
    180 O25        -0.0220    0.2300   -1.4280 oh        1 MOL     -0.874972
    181 H86         0.4700    0.4360   -2.2190 ho        1 MOL      0.425640
    182 H87        -0.5030    1.0320   -1.2280 ho        1 MOL      0.425640
    183 O26         0.7520   -3.8220    1.8200 oh        1 MOL     -0.874972
    184 H88         0.8600   -3.2250    2.5520 ho        1 MOL      0.425640
    185 H89         1.0910   -4.6560    2.1300 ho        1 MOL      0.425640
    186 O27         0.4080   -0.1960    1.3780 oh        1 MOL     -0.874972
    187 H90         1.0820   -0.0550    2.0360 ho        1 MOL      0.425640
    188 H91         0.0180    0.6710    1.2320 ho        1 MOL      0.425640
@<TRIPOS>BOND
     1    1    2 1   
     2    1    4 1   
     3    1    5 1   
     4    1    6 1   
     5    2    3 2   
     6    2    7 1   
     7    7    8 1   
     8    7   15 1   
     9    8    9 1   
    10    8   11 1   
    11    8   16 1   
    12    9   10 2   
    13    9   19 1   
    14   11   12 1   
    15   11   17 1   
    16   11   18 1   
    17   12   13 1   
    18   12   14 1   
    19   19   20 1   
    20   19   28 1   
    21   20   21 1   
    22   20   23 1   
    23   20   29 1   
    24   21   22 2   
    25   21   41 1   
    26   23   24 1   
    27   23   30 1   
    28   23   31 1   
    29   24   25 1   
    30   24   32 1   
    31   24   33 1   
    32   25   26 1   
    33   25   34 1   
    34   25   35 1   
    35   26   27 1   
    36   26   36 1   
    37   26   37 1   
    38   27   38 1   
    39   27   39 1   
    40   27   40 1   
    41   41   42 1   
    42   41   49 1   
    43   42   43 1   
    44   42   45 1   
    45   42   50 1   
    46   43   44 2   
    47   43   53 1   
    48   45   46 1   
    49   45   51 1   
    50   45   52 1   
    51   46   47 1   
    52   46   48 1   
    53   53   54 1   
    54   53   57 1   
    55   54   55 1   
    56   54   58 1   
    57   54   59 1   
    58   55   56 2   
    59   55   60 1   
    60   60   61 1   
    61   60   68 1   
    62   61   62 1   
    63   61   64 1   
    64   61   69 1   
    65   62   63 2   
    66   62   74 1   
    67   64   65 1   
    68   64   70 1   
    69   64   71 1   
    70   65   66 1   
    71   65   67 2   
    72   66   72 1   
    73   66   73 1   
    74   74   75 1   
    75   74   78 1   
    76   75   76 1   
    77   75   79 1   
    78   75   80 1   
    79   76   77 2   
    80   76   81 1   
    81   81   82 1   
    82   81   93 1   
    83   82   83 1   
    84   82   85 1   
    85   82   94 1   
    86   83   84 2   
    87   83  102 1   
    88   85   86 1   
    89   85   95 1   
    90   85   96 1   
    91   86   87 ar  
    92   86   88 ar  
    93   87   89 ar  
    94   87   97 1   
    95   88   90 ar  
    96   88   98 1   
    97   89   91 ar  
    98   89   99 1   
    99   90   91 ar  
   100   90  100 1   
   101   91   92 1   
   102   92  101 1   
   103  102  103 1   
   104  102  110 1   
   105  103  104 1   
   106  103  106 1   
   107  103  111 1   
   108  104  105 2   
   109  104  121 1   
   110  106  107 1   
   111  106  108 1   
   112  106  112 1   
   113  107  109 1   
   114  107  113 1   
   115  107  114 1   
   116  108  115 1   
   117  108  116 1   
   118  108  117 1   
   119  109  118 1   
   120  109  119 1   
   121  109  120 1   
   122  121  122 1   
   123  121  127 1   
   124  122  123 1   
   125  122  125 1   
   126  122  128 1   
   127  123  124 2   
   128  123  132 1   
   129  125  126 1   
   130  125  129 1   
   131  125  130 1   
   132  126  131 1   
   133  132  133 1   
   134  132  137 1   
   135  133  134 1   
   136  133  136 1   
   137  133  138 1   
   138  134  135 2   
   139  134  142 1   
   140  136  139 1   
   141  136  140 1   
   142  136  141 1   
   143  142  143 1   
   144  142  147 1   
   145  143  144 1   
   146  143  146 1   
   147  143  148 1   
   148  144  145 2   
   149  144  152 1   
   150  146  149 1   
   151  146  150 1   
   152  146  151 1   
   153  152  153 1   
   154  152  161 1   
   155  153  154 1   
   156  153  156 1   
   157  153  162 1   
   158  154  155 2   
   159  154  167 1   
   160  156  157 1   
   161  156  163 1   
   162  156  164 1   
   163  157  158 1   
   164  157  165 1   
   165  157  166 1   
   166  158  159 1   
   167  158  160 1   
   168  167  168 1   
   169  167  172 1   
   170  168  169 1   
   171  168  170 1   
   172  168  171 1   
   173  174  176 1   
   174  174  178 1   
   175  175  177 1   
   176  175  179 1   
   177  180  181 1   
   178  180  182 1   
   179  183  184 1   
   180  183  185 1   
   181  186  187 1   
   182  186  188 1   
@<TRIPOS>SUBSTRUCTURE
     1 MOL         1 TEMP              0 ****  ****    0 ROOT
