@<TRIPOS>MOLECULE
MOL
  178   175     1     0     0
SMALL
resp


@<TRIPOS>ATOM
      1 C1          4.5580   -2.1330    2.5660 c3        1 MOL     -0.350673
      2 C2          5.8690   -1.3070    2.3250 c         1 MOL      0.698766
      3 O1          5.8590   -0.1530    1.8310 o         1 MOL     -0.612573
      4 H1          4.7460   -2.9020    3.3160 hc        1 MOL      0.101185
      5 H2          3.7690   -1.4680    2.9190 hc        1 MOL      0.101185
      6 H3          4.2470   -2.6040    1.6330 hc        1 MOL      0.101185
      7 N1          6.9950   -1.9040    2.6480 n         1 MOL     -0.595501
      8 C3          8.2770   -1.2120    2.5550 c3        1 MOL      0.279731
      9 C4          8.6820   -1.1940    1.0460 c         1 MOL      0.486794
     10 O2          8.7620   -2.2790    0.4100 o         1 MOL     -0.556078
     11 C5          9.3190   -1.8320    3.4530 c3        1 MOL     -0.434384
     12 C6          9.1560   -1.7410    5.0060 c         1 MOL      0.752799
     13 O3          8.2780   -1.0780    5.5990 o         1 MOL     -0.731603
     14 O4          9.9900   -2.3960    5.7020 o         1 MOL     -0.731603
     15 H4          6.9420   -2.7830    3.1580 hn        1 MOL      0.357623
     16 H5          8.2880   -0.1540    2.8240 h1        1 MOL      0.011879
     17 H6         10.2960   -1.4300    3.2080 hc        1 MOL      0.079403
     18 H7          9.4160   -2.8740    3.1590 hc        1 MOL      0.079403
     19 N2          8.7290   -0.0330    0.4290 n         1 MOL     -0.493277
     20 C7          8.8510    0.1510   -1.0000 c3        1 MOL      0.250679
     21 C8          7.5330   -0.1620   -1.7310 c         1 MOL      0.537112
     22 O5          7.6630   -0.5660   -2.8820 o         1 MOL     -0.583690
     23 C9          9.4080    1.5250   -1.3140 c3        1 MOL     -0.334972
     24 H8          8.6380    0.7660    1.0450 hn        1 MOL      0.279559
     25 H9          9.5460   -0.5730   -1.4360 h1        1 MOL      0.059471
     26 H10         9.2040    1.9220   -2.3020 hc        1 MOL      0.081081
     27 H11         9.0890    2.2980   -0.6140 hc        1 MOL      0.081081
     28 H12        10.4990    1.4740   -1.2910 hc        1 MOL      0.081081
     29 N3          6.3490   -0.1360   -1.0680 n         1 MOL     -0.497488
     30 C10         5.0430   -0.6300   -1.5710 c3        1 MOL      0.239929
     31 C11         4.5220   -0.0620   -2.9250 c         1 MOL      0.375420
     32 O6          3.8020   -0.7040   -3.7140 o         1 MOL     -0.426601
     33 C12         5.1990   -2.1460   -1.6880 c3        1 MOL     -0.147828
     34 C13         3.7610   -2.8090   -1.7780 c         1 MOL      0.609439
     35 O7          3.5820   -3.8830   -2.3170 o         1 MOL     -0.736020
     36 O8          2.8000   -2.2620   -1.1860 o         1 MOL     -0.736020
     37 H13         6.3350    0.1770   -0.0970 hn        1 MOL      0.254064
     38 H14         4.3510   -0.4160   -0.7560 h1        1 MOL      0.067753
     39 H15         5.6630   -2.5500   -0.7880 hc        1 MOL      0.056777
     40 H16         5.8470   -2.4580   -2.4980 hc        1 MOL      0.056777
     41 N4          5.0450    1.1110   -3.3140 n         1 MOL     -0.188273
     42 C14         4.9050    1.7710   -4.6210 c3        1 MOL     -0.230975
     43 C15         3.6540    2.6980   -4.7530 c         1 MOL      0.511572
     44 O9          3.5640    3.3340   -5.8610 o         1 MOL     -0.576132
     45 H17         5.5590    1.5660   -2.5750 hn        1 MOL      0.161586
     46 H18         4.8800    0.9880   -5.3760 h1        1 MOL      0.127917
     47 H19         5.8080    2.3750   -4.7180 h1        1 MOL      0.127917
     48 N5          2.9330    2.9010   -3.6640 n         1 MOL     -0.341391
     49 C16         2.0970    4.1230   -3.4990 c3        1 MOL      0.191423
     50 C17         2.0240    4.5740   -2.0160 c         1 MOL      0.490686
     51 O10         2.6140    3.9120   -1.1620 o         1 MOL     -0.492948
     52 C18         0.7060    3.8560   -4.1710 c3        1 MOL     -0.105041
     53 C19         0.0280    4.9320   -4.9730 c         1 MOL      0.587182
     54 N6         -0.0900    4.8730   -6.2360 n         1 MOL     -0.718658
     55 O11        -0.5510    5.8670   -4.4040 o         1 MOL     -0.579286
     56 H20         3.0970    2.3250   -2.8470 hn        1 MOL      0.216575
     57 H21         2.5740    4.8760   -4.1210 h1        1 MOL      0.007976
     58 H22        -0.0010    3.5990   -3.3750 hc        1 MOL      0.055210
     59 H23         0.7110    2.9690   -4.7990 hc        1 MOL      0.055210
     60 H24         0.1280    4.0150   -6.7170 hn        1 MOL      0.355389
     61 H25        -0.5670    5.6410   -6.6920 hn        1 MOL      0.355389
     62 N7          1.2840    5.6310   -1.6890 n         1 MOL     -0.514747
     63 C20         1.1200    6.2060   -0.3280 c3        1 MOL      0.245496
     64 C21        -0.3720    6.2150    0.1450 c         1 MOL      0.488414
     65 O12        -1.2570    5.6910   -0.5870 o         1 MOL     -0.479654
     66 H26         0.6890    5.9880   -2.4240 hn        1 MOL      0.254050
     67 H27         1.4200    7.2500   -0.3370 h1        1 MOL      0.002360
     68 H28         1.7830    5.7240    0.3920 h1        1 MOL      0.002360
     69 N8         -0.5910    6.6120    1.3910 n         1 MOL     -0.475572
     70 C22        -1.8690    6.7070    2.1080 c3        1 MOL     -0.099500
     71 C23        -2.4140    5.2900    2.5160 c         1 MOL      0.432804
     72 O13        -3.6540    5.0760    2.4770 o         1 MOL     -0.538379
     73 C24        -2.0460    7.8050    3.1410 c3        1 MOL      0.522012
     74 C25        -1.6090    7.6090    4.5860 c3        1 MOL     -0.426760
     75 O14        -1.6400    9.0800    2.6650 oh        1 MOL     -0.631010
     76 H29         0.1980    7.1230    1.7720 hn        1 MOL      0.245656
     77 H30        -2.5760    7.0010    1.3320 h1        1 MOL      0.113319
     78 H31        -3.1400    7.8680    3.1580 h1        1 MOL      0.008476
     79 H32        -0.6820    9.0760    2.6270 ho        1 MOL      0.370870
     80 H33        -0.5270    7.4320    4.6190 hc        1 MOL      0.098079
     81 H34        -1.8870    8.4560    5.2140 hc        1 MOL      0.098079
     82 H35        -2.0520    6.6850    4.9650 hc        1 MOL      0.098079
     83 N9         -1.5130    4.3270    2.7910 n         1 MOL     -0.125656
     84 C26        -1.7300    2.9890    3.1390 c3        1 MOL     -0.040320
     85 C27        -1.2320    2.0900    2.0420 c         1 MOL      0.338388
     86 O15        -0.0570    2.2190    1.5790 o         1 MOL     -0.444157
     87 C28        -1.1180    2.5570    4.5080 c3        1 MOL      0.153700
     88 C29        -1.7990    3.3760    5.6380 c3        1 MOL     -0.256835
     89 C30        -1.3510    1.1110    4.7940 c3        1 MOL     -0.217922
     90 C31        -3.4030    3.4400    5.7460 c3        1 MOL     -0.204570
     91 H36        -0.5340    4.6000    2.7980 hn        1 MOL      0.173104
     92 H37        -2.7990    2.7760    3.2230 h1        1 MOL      0.095026
     93 H38        -0.0470    2.7200    4.4450 hc        1 MOL      0.039164
     94 H39        -1.4650    4.4050    5.5090 hc        1 MOL      0.066863
     95 H40        -1.4350    3.0080    6.6070 hc        1 MOL      0.066863
     96 H41        -2.3140    0.7320    4.4550 hc        1 MOL      0.070468
     97 H42        -0.5230    0.5460    4.3550 hc        1 MOL      0.070468
     98 H43        -1.2970    0.9530    5.8730 hc        1 MOL      0.070468
     99 H44        -3.7440    2.5030    6.1900 hc        1 MOL      0.066911
    100 H45        -3.7040    4.1860    6.4760 hc        1 MOL      0.066911
    101 H46        -3.8100    3.6940    4.7670 hc        1 MOL      0.066911
    102 N10        -2.0450    1.0350    1.7080 n         1 MOL     -0.341909
    103 C32        -1.8280    0.0970    0.6550 c3        1 MOL      0.443065
    104 C33        -3.0860   -0.4500   -0.1650 c         1 MOL      0.340749
    105 O16        -3.1790   -1.6410   -0.4500 o         1 MOL     -0.421641
    106 C34        -1.1610   -1.0750    1.2910 c3        1 MOL     -0.461700
    107 C35        -0.4870   -2.2210    0.4200 c         1 MOL      0.818054
    108 O17        -0.3290   -2.1090   -0.7990 o         1 MOL     -0.721668
    109 O18         0.0650   -3.2000    0.9300 o         1 MOL     -0.721668
    110 H47        -2.9870    1.0090    2.0740 hn        1 MOL      0.199396
    111 H48        -1.2440    0.6360   -0.0940 h1        1 MOL     -0.009503
    112 H49        -1.9570   -1.6430    1.7610 hc        1 MOL      0.071813
    113 H50        -0.4920   -0.6900    2.0650 hc        1 MOL      0.071813
    114 N11        -4.0190    0.4260   -0.3540 n         1 MOL     -0.436347
    115 C36        -5.3430    0.0840   -0.9950 c3        1 MOL      0.184707
    116 C37        -6.0240   -1.0400   -0.1910 c         1 MOL      0.409447
    117 O19        -6.1330   -1.0760    1.0530 o         1 MOL     -0.563111
    118 C38        -6.2470    1.3940   -0.9530 c3        1 MOL     -0.315736
    119 C39        -7.6250    1.1400   -1.5010 ca        1 MOL      0.079497
    120 C40        -8.0330    1.7010   -2.6850 ca        1 MOL     -0.088629
    121 C41        -8.6470    0.5390   -0.6690 ca        1 MOL     -0.088629
    122 C42        -9.4200    1.5860   -3.0800 ca        1 MOL     -0.206197
    123 C43        -9.9570    0.4230   -1.0340 ca        1 MOL     -0.206197
    124 C44       -10.3780    0.9370   -2.2730 ca        1 MOL     -0.035208
    125 H51        -3.8010    1.3920   -0.1500 hn        1 MOL      0.246960
    126 H52        -5.1230   -0.2050   -2.0230 h1        1 MOL      0.051413
    127 H53        -5.7620    2.2190   -1.4750 hc        1 MOL      0.133266
    128 H54        -6.4150    1.6760    0.0910 hc        1 MOL      0.133266
    129 H55        -7.3010    2.2810   -3.2360 ha        1 MOL      0.096478
    130 H56        -8.3640    0.0910    0.2710 ha        1 MOL      0.096478
    131 H57        -9.8000    1.9190   -4.0310 ha        1 MOL      0.123336
    132 H58       -10.7850    0.1340   -0.4120 ha        1 MOL      0.123336
    133 H59       -11.4130    0.9370   -2.5820 ha        1 MOL      0.089546
    134 N12        -6.6490   -1.9880   -0.8900 n         1 MOL      0.021114
    135 C45        -7.3880   -3.1240   -0.2810 c3        1 MOL      0.135686
    136 C46        -6.5360   -3.8710    0.8250 c         1 MOL      0.196174
    137 O20        -7.0330   -4.4560    1.7650 o         1 MOL     -0.488655
    138 C47        -7.8320   -4.0860   -1.3250 c3        1 MOL     -0.064690
    139 C48        -7.7020   -3.2380   -2.5950 c3        1 MOL     -0.075648
    140 C49        -6.5550   -2.2690   -2.3060 c3        1 MOL     -0.049672
    141 H60        -8.2650   -2.6850    0.1870 h1        1 MOL      0.037115
    142 H61        -7.1430   -4.9240   -1.4490 hc        1 MOL      0.043274
    143 H62        -8.8560   -4.3880   -1.1240 hc        1 MOL      0.043274
    144 H63        -7.4240   -3.8280   -3.4750 hc        1 MOL      0.033486
    145 H64        -8.6710   -2.7900   -2.7850 hc        1 MOL      0.033486
    146 H65        -5.5820   -2.7270   -2.4540 h1        1 MOL      0.027478
    147 H66        -6.7230   -1.3660   -2.8970 h1        1 MOL      0.027478
    148 N13        -5.2540   -3.9300    0.6090 n         1 MOL     -0.074302
    149 C50        -4.4000   -4.9250    1.3240 c3        1 MOL     -0.149276
    150 C51        -4.3080   -4.6960    2.8160 c         1 MOL      0.590819
    151 O21        -4.5330   -5.6470    3.5750 o         1 MOL     -0.577621
    152 C52        -2.9450   -4.8630    0.7730 c3        1 MOL     -0.032083
    153 C53        -2.8820   -5.4910   -0.5800 c3        1 MOL      0.012503
    154 C54        -1.4190   -5.5290   -1.0690 c         1 MOL      0.626083
    155 O22        -1.1720   -5.0760   -2.1720 o         1 MOL     -0.747058
    156 O23        -0.5570   -5.9820   -0.2860 o         1 MOL     -0.747058
    157 H67        -4.9010   -3.3380   -0.1210 hn        1 MOL      0.175773
    158 H68        -4.6790   -5.9750    1.2210 h1        1 MOL      0.090475
    159 H69        -2.3520   -5.4340    1.4880 hc        1 MOL      0.035549
    160 H70        -2.7980   -3.7820    0.6990 hc        1 MOL      0.035549
    161 H71        -3.5540   -5.1520   -1.3710 hc        1 MOL     -0.009172
    162 H72        -3.2100   -6.5250   -0.4720 hc        1 MOL     -0.009172
    163 N14        -4.1520   -3.4820    3.2900 n         1 MOL     -0.215709
    164 C55        -3.9780   -3.1920    4.6540 c3        1 MOL     -0.450155
    165 H73        -2.9770   -3.4930    4.9650 h1        1 MOL      0.145550
    166 H74        -4.1010   -2.1220    4.8170 h1        1 MOL      0.145550
    167 H75        -4.7190   -3.7370    5.2390 h1        1 MOL      0.145550
    168 H76        -4.2790   -2.6780    2.6890 hn        1 MOL      0.289334
    169 Ca1         1.2040   -4.2950   -1.3650 Ca        1 MOL      1.700020
    170 O24         1.7800   -6.7460   -2.5180 oh        1 MOL     -0.730069
    171 H77         1.8220   -7.4250   -1.8450 ho        1 MOL      0.366879
    172 H78         2.5710   -6.8890   -3.0500 ho        1 MOL      0.366879
    173 O25         0.8960   -3.4380   -3.8250 oh        1 MOL     -0.730069
    174 H79         0.8310   -4.1680   -4.4410 ho        1 MOL      0.366879
    175 H80         0.2840   -2.7820   -4.1660 ho        1 MOL      0.366879
    176 O26         2.9540   -5.2060    0.4180 oh        1 MOL     -0.730069
    177 H81         2.9440   -6.0050    0.9420 ho        1 MOL      0.366879
    178 H82         3.7500   -5.2680   -0.1170 ho        1 MOL      0.366879
@<TRIPOS>BOND
     1    1    2 1   
     2    1    4 1   
     3    1    5 1   
     4    1    6 1   
     5    2    3 2   
     6    2    7 1   
     7    7    8 1   
     8    7   15 1   
     9    8    9 1   
    10    8   11 1   
    11    8   16 1   
    12    9   10 2   
    13    9   19 1   
    14   11   12 1   
    15   11   17 1   
    16   11   18 1   
    17   12   13 1   
    18   12   14 1   
    19   19   20 1   
    20   19   24 1   
    21   20   21 1   
    22   20   23 1   
    23   20   25 1   
    24   21   22 2   
    25   21   29 1   
    26   23   26 1   
    27   23   27 1   
    28   23   28 1   
    29   29   30 1   
    30   29   37 1   
    31   30   31 1   
    32   30   33 1   
    33   30   38 1   
    34   31   32 2   
    35   31   41 1   
    36   33   34 1   
    37   33   39 1   
    38   33   40 1   
    39   34   35 1   
    40   34   36 1   
    41   41   42 1   
    42   41   45 1   
    43   42   43 1   
    44   42   46 1   
    45   42   47 1   
    46   43   44 2   
    47   43   48 1   
    48   48   49 1   
    49   48   56 1   
    50   49   50 1   
    51   49   52 1   
    52   49   57 1   
    53   50   51 2   
    54   50   62 1   
    55   52   53 1   
    56   52   58 1   
    57   52   59 1   
    58   53   54 1   
    59   53   55 2   
    60   54   60 1   
    61   54   61 1   
    62   62   63 1   
    63   62   66 1   
    64   63   64 1   
    65   63   67 1   
    66   63   68 1   
    67   64   65 2   
    68   64   69 1   
    69   69   70 1   
    70   69   76 1   
    71   70   71 1   
    72   70   73 1   
    73   70   77 1   
    74   71   72 2   
    75   71   83 1   
    76   73   74 1   
    77   73   75 1   
    78   73   78 1   
    79   74   80 1   
    80   74   81 1   
    81   74   82 1   
    82   75   79 1   
    83   83   84 1   
    84   83   91 1   
    85   84   85 1   
    86   84   87 1   
    87   84   92 1   
    88   85   86 2   
    89   85  102 1   
    90   87   88 1   
    91   87   89 1   
    92   87   93 1   
    93   88   90 1   
    94   88   94 1   
    95   88   95 1   
    96   89   96 1   
    97   89   97 1   
    98   89   98 1   
    99   90   99 1   
   100   90  100 1   
   101   90  101 1   
   102  102  103 1   
   103  102  110 1   
   104  103  104 1   
   105  103  106 1   
   106  103  111 1   
   107  104  105 2   
   108  104  114 1   
   109  106  107 1   
   110  106  112 1   
   111  106  113 1   
   112  107  108 1   
   113  107  109 1   
   114  114  115 1   
   115  114  125 1   
   116  115  116 1   
   117  115  118 1   
   118  115  126 1   
   119  116  117 2   
   120  116  134 1   
   121  118  119 1   
   122  118  127 1   
   123  118  128 1   
   124  119  120 ar  
   125  119  121 ar  
   126  120  122 ar  
   127  120  129 1   
   128  121  123 ar  
   129  121  130 1   
   130  122  124 ar  
   131  122  131 1   
   132  123  124 ar  
   133  123  132 1   
   134  124  133 1   
   135  134  135 1   
   136  134  140 1   
   137  135  136 1   
   138  135  138 1   
   139  135  141 1   
   140  136  137 2   
   141  136  148 1   
   142  138  139 1   
   143  138  142 1   
   144  138  143 1   
   145  139  140 1   
   146  139  144 1   
   147  139  145 1   
   148  140  146 1   
   149  140  147 1   
   150  148  149 1   
   151  148  157 1   
   152  149  150 1   
   153  149  152 1   
   154  149  158 1   
   155  150  151 2   
   156  150  163 1   
   157  152  153 1   
   158  152  159 1   
   159  152  160 1   
   160  153  154 1   
   161  153  161 1   
   162  153  162 1   
   163  154  155 1   
   164  154  156 1   
   165  163  164 1   
   166  163  168 1   
   167  164  165 1   
   168  164  166 1   
   169  164  167 1   
   170  170  171 1   
   171  170  172 1   
   172  173  174 1   
   173  173  175 1   
   174  176  177 1   
   175  176  178 1   
@<TRIPOS>SUBSTRUCTURE
     1 MOL         1 TEMP              0 ****  ****    0 ROOT
