@<TRIPOS>MOLECULE
MOL
  192   187     1     0     0
SMALL
resp


@<TRIPOS>ATOM
      1 C1          5.0170    4.0010   -3.3570 c3        1 MOL     -0.406093
      2 C2          5.5750    3.0940   -2.2830 c         1 MOL      0.947422
      3 O1          4.9650    2.8370   -1.2710 o         1 MOL     -0.709176
      4 H1          3.9500    4.1460   -3.1900 hc        1 MOL      0.087518
      5 H2          5.5240    4.9650   -3.3180 hc        1 MOL      0.087518
      6 H3          5.1740    3.5460   -4.3350 hc        1 MOL      0.087518
      7 N1          6.8040    2.6980   -2.5730 n         1 MOL     -0.749464
      8 C3          7.4400    1.5430   -1.9030 c3        1 MOL      0.368702
      9 C4          6.3220    0.5100   -1.5500 c         1 MOL      0.198873
     10 O2          5.9420    0.2070   -0.3300 o         1 MOL     -0.475855
     11 C5          8.2900    1.9230   -0.7020 c3        1 MOL     -0.018406
     12 C6          7.9510    2.7430    0.4760 c         1 MOL      0.635136
     13 O3          6.7560    3.0490    0.6110 o         1 MOL     -0.701004
     14 O4          8.7880    3.1240    1.3440 o         1 MOL     -0.701004
     15 H4          7.3030    2.9810   -3.4140 hn        1 MOL      0.329222
     16 H5          8.1530    1.0490   -2.5660 h1        1 MOL      0.002962
     17 H6          9.1600    2.4150   -1.1400 hc        1 MOL     -0.011814
     18 H7          8.7770    1.0390   -0.2810 hc        1 MOL     -0.011814
     19 N2          5.8080   -0.0680   -2.7000 n         1 MOL     -0.395648
     20 C7          4.9260   -1.2480   -2.9330 c3        1 MOL      0.060568
     21 C8          5.3960   -2.5620   -2.3470 c         1 MOL      0.460889
     22 O5          5.5910   -3.5000   -3.0570 o         1 MOL     -0.557782
     23 C9          3.3750   -0.9540   -2.6120 c3        1 MOL      0.675733
     24 C10         2.4540   -2.0980   -3.2200 c3        1 MOL     -0.278875
     25 C11         2.9110    0.4020   -3.2020 c3        1 MOL     -0.028323
     26 C12         2.6250   -2.3880   -4.7260 c3        1 MOL     -0.327823
     27 H8          6.0550    0.4140   -3.5490 hn        1 MOL      0.250501
     28 H9          5.0370   -1.4780   -3.9940 h1        1 MOL      0.011860
     29 H10         3.2980   -0.8530   -1.5280 hc        1 MOL     -0.271959
     30 H11         1.4050   -1.9160   -3.0130 hc        1 MOL      0.142609
     31 H12         2.8190   -3.0340   -2.7790 hc        1 MOL      0.142609
     32 H13         1.8260    0.4820   -3.1970 hc        1 MOL     -0.058347
     33 H14         3.3100    1.2340   -2.6040 hc        1 MOL     -0.058347
     34 H15         3.4560    0.4920   -4.1360 hc        1 MOL     -0.058347
     35 H16         3.6350   -2.6910   -5.0200 hc        1 MOL      0.064638
     36 H17         1.9910   -3.1940   -5.1100 hc        1 MOL      0.064638
     37 H18         2.3200   -1.5010   -5.2760 hc        1 MOL      0.064638
     38 N3          5.7080   -2.5660   -1.0340 n         1 MOL     -0.228073
     39 C13         6.3770   -3.6850   -0.3030 c3        1 MOL     -0.032750
     40 C14         5.4810   -4.9780   -0.0480 c         1 MOL      0.613926
     41 O6          6.0110   -6.0690   -0.1430 o         1 MOL     -0.587122
     42 C15         6.9650   -3.2570    1.0860 c3        1 MOL     -0.123265
     43 C16         7.8750   -2.0360    1.0590 c         1 MOL      0.778893
     44 O7          8.5500   -1.8640    0.0410 o         1 MOL     -0.714776
     45 O8          8.0720   -1.4230    2.1240 o         1 MOL     -0.714776
     46 H19         5.5970   -1.6580   -0.6090 hn        1 MOL      0.277977
     47 H20         7.0990   -4.1340   -0.9910 h1        1 MOL      0.055995
     48 H21         7.5080   -4.1050    1.5080 hc        1 MOL      0.037368
     49 H22         6.1000   -3.0060    1.7000 hc        1 MOL      0.037368
     50 N4          4.2220   -4.9190    0.4570 n         1 MOL     -0.614419
     51 C17         3.2920   -3.7530    0.5850 c3        1 MOL      0.097917
     52 C18         2.0570   -4.1220    1.4520 c         1 MOL      0.651863
     53 O9          1.4710   -5.1580    1.1880 o         1 MOL     -0.601871
     54 H23         3.9750   -5.8090    0.8860 hn        1 MOL      0.342564
     55 H24         2.9120   -3.3660   -0.3600 h1        1 MOL     -0.013406
     56 H25         3.8480   -2.8720    0.8980 h1        1 MOL     -0.013406
     57 N5          1.6510   -3.3070    2.4610 n         1 MOL     -0.375167
     58 C19         2.2680   -2.0520    2.8720 c3        1 MOL      0.235569
     59 C20         2.3770   -0.9100    1.8080 c         1 MOL      0.617817
     60 O10         3.5300   -0.5470    1.5800 o         1 MOL     -0.623868
     61 C21         3.5350   -2.3370    3.7030 c3        1 MOL     -0.481808
     62 C22         3.3330   -3.3600    4.8410 c         1 MOL      0.739699
     63 O11         2.4630   -3.2110    5.6890 o         1 MOL     -0.721006
     64 O12         3.9050   -4.4770    4.8100 o         1 MOL     -0.721006
     65 H26         0.8640   -3.7560    2.9150 hn        1 MOL      0.261013
     66 H27         1.5730   -1.6300    3.5990 h1        1 MOL     -0.001529
     67 H28         3.8830   -1.3940    4.1260 hc        1 MOL      0.101154
     68 H29         4.3880   -2.7650    3.1620 hc        1 MOL      0.101154
     69 N6          1.3610   -0.4950    0.9730 n         1 MOL     -0.516950
     70 C23        -0.0410   -0.9250    1.0070 c3        1 MOL      0.122449
     71 C24        -0.4540   -2.1150    0.1210 c         1 MOL      0.493116
     72 O13         0.3690   -2.5160   -0.7350 o         1 MOL     -0.543772
     73 H30         1.6730    0.2030    0.3130 hn        1 MOL      0.283499
     74 H31        -0.6820   -0.1640    0.5690 h1        1 MOL     -0.002853
     75 H32        -0.3550   -1.0570    2.0490 h1        1 MOL     -0.002853
     76 N7         -1.5680   -2.7630    0.4970 n         1 MOL     -0.558429
     77 C25        -1.9450   -4.0110   -0.1830 c3        1 MOL     -0.019247
     78 C26        -2.6320   -3.7620   -1.5850 c         1 MOL      0.420972
     79 O14        -2.9550   -4.7440   -2.2500 o         1 MOL     -0.516774
     80 C27        -2.8840   -4.8450    0.6600 c3        1 MOL     -0.047887
     81 C28        -4.2450   -4.1310    0.9290 c3        1 MOL      0.098517
     82 C29        -5.0720   -4.7770    2.0500 c         1 MOL      0.563477
     83 N8         -5.7810   -5.7220    1.6210 n         1 MOL     -0.774073
     84 O15        -5.1330   -4.3800    3.2040 o         1 MOL     -0.564416
     85 H33        -2.0710   -2.4550    1.3170 hn        1 MOL      0.350400
     86 H34        -1.0780   -4.6130   -0.4800 h1        1 MOL      0.154452
     87 H35        -2.3850   -4.8530    1.6270 hc        1 MOL      0.046084
     88 H36        -3.1050   -5.8420    0.3010 hc        1 MOL      0.046084
     89 H37        -4.9280   -4.1630    0.0820 hc        1 MOL     -0.031526
     90 H38        -4.1280   -3.0740    1.2060 hc        1 MOL     -0.031526
     91 H39        -5.7210   -6.0510    0.6720 hn        1 MOL      0.367334
     92 H40        -6.3900   -6.1590    2.3040 hn        1 MOL      0.367334
     93 N9         -2.9250   -2.5180   -1.9340 n         1 MOL     -0.094764
     94 C30        -3.4000   -2.1150   -3.2720 c3        1 MOL     -0.374120
     95 C31        -4.7770   -1.4710   -3.3210 c         1 MOL      0.683671
     96 O16        -5.2470   -1.0880   -4.3760 o         1 MOL     -0.569828
     97 C32        -2.3490   -1.2440   -4.0330 c3        1 MOL      0.281212
     98 C33        -1.1300   -2.0530   -4.4480 c3        1 MOL     -0.353165
     99 C34        -1.8510   -0.0140   -3.0840 c3        1 MOL     -0.353165
    100 H41        -2.6550   -1.7680   -1.3070 hn        1 MOL      0.182805
    101 H42        -3.3950   -3.0240   -3.8790 h1        1 MOL      0.165002
    102 H43        -2.7900   -0.7540   -4.9000 hc        1 MOL     -0.001943
    103 H44        -0.6430   -2.3580   -3.5270 hc        1 MOL      0.095869
    104 H45        -1.3740   -3.0370   -4.8500 hc        1 MOL      0.095869
    105 H46        -0.4950   -1.4640   -5.1030 hc        1 MOL      0.095869
    106 H47        -1.2300    0.6920   -3.6550 hc        1 MOL      0.095869
    107 H48        -2.7100    0.4780   -2.6560 hc        1 MOL      0.095869
    108 H49        -1.1320   -0.3280   -2.3310 hc        1 MOL      0.095869
    109 N10        -5.5010   -1.2870   -2.2060 n         1 MOL     -0.446125
    110 C35        -6.8160   -0.6560   -2.1020 c3        1 MOL      0.027657
    111 C36        -6.9880    0.6220   -1.2360 c         1 MOL      0.598344
    112 O17        -7.9990    1.3580   -1.3220 o         1 MOL     -0.569899
    113 C37        -7.7600   -1.7950   -1.7740 c3        1 MOL     -0.174775
    114 C38        -7.8020   -2.9490   -2.7310 c         1 MOL      0.698699
    115 N11        -8.6380   -2.8840   -3.7520 n         1 MOL     -0.817325
    116 O18        -7.0940   -3.9050   -2.5320 o         1 MOL     -0.561143
    117 H50        -5.0450   -1.4000   -1.3100 hn        1 MOL      0.219542
    118 H51        -7.0540   -0.2650   -3.0880 h1        1 MOL      0.072685
    119 H52        -8.7470   -1.3390   -1.8380 hc        1 MOL      0.041046
    120 H53        -7.6620   -2.1930   -0.7560 hc        1 MOL      0.041046
    121 H54        -8.8180   -1.9210   -4.0120 hn        1 MOL      0.369993
    122 H55        -8.5170   -3.6470   -4.4150 hn        1 MOL      0.369993
    123 N12        -5.9100    0.9660   -0.5550 n         1 MOL     -0.451870
    124 C39        -5.8820    2.0900    0.4420 c3        1 MOL      0.044012
    125 C40        -4.5890    2.8770    0.3460 c         1 MOL      0.521787
    126 O19        -3.5160    2.3530    0.0510 o         1 MOL     -0.488654
    127 C41        -5.9530    1.4760    1.8140 c3        1 MOL     -0.031536
    128 C42        -7.0390    0.3920    1.9970 ca        1 MOL      0.083158
    129 C43        -8.3150    0.8630    2.0710 ca        1 MOL     -0.166399
    130 C44        -6.7160   -0.9990    2.1560 ca        1 MOL     -0.166399
    131 C45        -9.3340   -0.0980    2.1490 ca        1 MOL     -0.219594
    132 C46        -7.7810   -1.9310    2.2880 ca        1 MOL     -0.219594
    133 C47        -9.1210   -1.4510    2.3650 ca        1 MOL      0.308638
    134 O20       -10.1800   -2.2400    2.2260 oh        1 MOL     -0.533361
    135 H56        -5.0840    0.3680   -0.6120 hn        1 MOL      0.253866
    136 H57        -6.7320    2.7590    0.2690 h1        1 MOL      0.073859
    137 H58        -6.0760    2.2140    2.6060 hc        1 MOL      0.050665
    138 H59        -4.9860    0.9980    1.9900 hc        1 MOL      0.050665
    139 H60        -8.6240    1.8900    1.9400 ha        1 MOL      0.147446
    140 H61        -5.6750   -1.2760    2.0910 ha        1 MOL      0.147446
    141 H62       -10.3530    0.2370    2.2200 ha        1 MOL      0.125075
    142 H63        -7.6960   -3.0080    2.2910 ha        1 MOL      0.125075
    143 H64        -9.9340   -3.1440    1.9880 ho        1 MOL      0.392213
    144 N13        -4.6460    4.1580    0.6150 n         1 MOL     -0.571090
    145 C48        -3.7100    5.2370    1.0530 c3        1 MOL      0.095835
    146 C49        -2.4580    5.4380    0.1640 c         1 MOL      0.628679
    147 O21        -1.7640    6.4160    0.3460 o         1 MOL     -0.592732
    148 C50        -3.3060    5.0070    2.5170 c3        1 MOL     -0.008355
    149 C51        -4.5790    5.1800    3.4050 c3        1 MOL     -0.208452
    150 C52        -4.3640    4.6500    4.7870 c         1 MOL      0.730899
    151 O22        -4.0480    5.4750    5.6850 o         1 MOL     -0.733956
    152 O23        -4.6470    3.4660    5.0410 o         1 MOL     -0.733956
    153 H65        -5.5860    4.4990    0.7480 hn        1 MOL      0.301084
    154 H66        -4.2250    6.1970    1.0580 h1        1 MOL      0.044692
    155 H67        -2.4770    5.6320    2.8210 hc        1 MOL      0.056773
    156 H68        -2.9340    3.9820    2.6420 hc        1 MOL      0.056773
    157 H69        -5.4710    4.6890    3.0130 hc        1 MOL      0.017817
    158 H70        -4.7760    6.2450    3.4980 hc        1 MOL      0.017817
    159 N14        -2.1000    4.5970   -0.7920 n         1 MOL     -0.601549
    160 C53        -0.8210    4.7090   -1.5540 c3        1 MOL      0.022080
    161 C54        -0.9880    5.6220   -2.7250 c         1 MOL      0.512592
    162 O24        -0.0610    5.8360   -3.4510 o         1 MOL     -0.522702
    163 C55        -0.3570    3.2940   -1.9520 c3        1 MOL     -0.321678
    164 C56         0.1010    2.3480   -0.7690 c3        1 MOL      0.274529
    165 C57         1.2230    2.8030    0.1670 c         1 MOL      0.566859
    166 O25         2.3100    2.1250    0.1970 o         1 MOL     -0.621671
    167 O26         0.9730    3.7460    0.9830 o         1 MOL     -0.621671
    168 H71        -2.6600    3.7620   -0.8720 hn        1 MOL      0.297580
    169 H72        -0.0260    5.1770   -0.9810 h1        1 MOL      0.154009
    170 H73         0.5540    3.4690   -2.5250 hc        1 MOL      0.097575
    171 H74        -1.1240    2.7810   -2.5340 hc        1 MOL      0.097575
    172 H75         0.3710    1.3720   -1.1720 hc        1 MOL     -0.047490
    173 H76        -0.7950    2.2320   -0.1590 hc        1 MOL     -0.047490
    174 N15        -2.2080    6.2400   -2.9210 n         1 MOL     -0.234365
    175 C58        -2.4980    7.1340   -3.9850 c3        1 MOL     -0.209931
    176 H77        -3.5580    7.3840   -3.9700 h1        1 MOL      0.082305
    177 H78        -1.9090    8.0440   -3.8680 h1        1 MOL      0.082305
    178 H79        -2.2500    6.6610   -4.9360 h1        1 MOL      0.082305
    179 H80        -2.9510    6.1730   -2.2340 hn        1 MOL      0.221631
    180 Ca1         4.5530    1.9440    1.2670 Ca        1 MOL      1.795445
    181 O27         5.9460    0.5410    2.9120 oh        1 MOL     -0.822475
    182 H81         6.5440   -0.1830    2.6990 ho        1 MOL      0.390470
    183 H82         5.9440    0.5780    3.8750 ho        1 MOL      0.390470
    184 O28         3.6580    4.4300    1.4480 oh        1 MOL     -0.822475
    185 O29         2.5450    2.0400    3.3470 oh        1 MOL     -0.822475
    186 H83         2.8030    4.3010    1.0420 ho        1 MOL      0.390470
    187 H84         1.8840    2.7270    3.2500 ho        1 MOL      0.390470
    188 H85         3.4970    5.0130    2.1780 ho        1 MOL      0.390470
    189 H86         2.1350    1.4100    3.9450 ho        1 MOL      0.390470
    190 O30         5.8030    3.7060    3.2420 oh        1 MOL     -0.822475
    191 H87         5.6390    4.1470    4.0780 ho        1 MOL      0.390470
    192 H88         6.7250    3.8990    3.0490 ho        1 MOL      0.390470
@<TRIPOS>BOND
     1    1    2 1   
     2    1    4 1   
     3    1    5 1   
     4    1    6 1   
     5    2    3 2   
     6    2    7 1   
     7    7    8 1   
     8    7   15 1   
     9    8    9 1   
    10    8   11 1   
    11    8   16 1   
    12    9   10 2   
    13    9   19 1   
    14   11   12 1   
    15   11   17 1   
    16   11   18 1   
    17   12   13 1   
    18   12   14 1   
    19   19   20 1   
    20   19   27 1   
    21   20   21 1   
    22   20   23 1   
    23   20   28 1   
    24   21   22 2   
    25   21   38 1   
    26   23   24 1   
    27   23   25 1   
    28   23   29 1   
    29   24   26 1   
    30   24   30 1   
    31   24   31 1   
    32   25   32 1   
    33   25   33 1   
    34   25   34 1   
    35   26   35 1   
    36   26   36 1   
    37   26   37 1   
    38   38   39 1   
    39   38   46 1   
    40   39   40 1   
    41   39   42 1   
    42   39   47 1   
    43   40   41 2   
    44   40   50 1   
    45   42   43 1   
    46   42   48 1   
    47   42   49 1   
    48   43   44 1   
    49   43   45 1   
    50   50   51 1   
    51   50   54 1   
    52   51   52 1   
    53   51   55 1   
    54   51   56 1   
    55   52   53 2   
    56   52   57 1   
    57   57   58 1   
    58   57   65 1   
    59   58   59 1   
    60   58   61 1   
    61   58   66 1   
    62   59   60 2   
    63   59   69 1   
    64   61   62 1   
    65   61   67 1   
    66   61   68 1   
    67   62   63 1   
    68   62   64 1   
    69   69   70 1   
    70   69   73 1   
    71   70   71 1   
    72   70   74 1   
    73   70   75 1   
    74   71   72 2   
    75   71   76 1   
    76   76   77 1   
    77   76   85 1   
    78   77   78 1   
    79   77   80 1   
    80   77   86 1   
    81   78   79 2   
    82   78   93 1   
    83   80   81 1   
    84   80   87 1   
    85   80   88 1   
    86   81   82 1   
    87   81   89 1   
    88   81   90 1   
    89   82   83 1   
    90   82   84 2   
    91   83   91 1   
    92   83   92 1   
    93   93   94 1   
    94   93  100 1   
    95   94   95 1   
    96   94   97 1   
    97   94  101 1   
    98   95   96 2   
    99   95  109 1   
   100   97   98 1   
   101   97   99 1   
   102   97  102 1   
   103   98  103 1   
   104   98  104 1   
   105   98  105 1   
   106   99  106 1   
   107   99  107 1   
   108   99  108 1   
   109  109  110 1   
   110  109  117 1   
   111  110  111 1   
   112  110  113 1   
   113  110  118 1   
   114  111  112 2   
   115  111  123 1   
   116  113  114 1   
   117  113  119 1   
   118  113  120 1   
   119  114  115 1   
   120  114  116 2   
   121  115  121 1   
   122  115  122 1   
   123  123  124 1   
   124  123  135 1   
   125  124  125 1   
   126  124  127 1   
   127  124  136 1   
   128  125  126 2   
   129  125  144 1   
   130  127  128 1   
   131  127  137 1   
   132  127  138 1   
   133  128  129 ar  
   134  128  130 ar  
   135  129  131 ar  
   136  129  139 1   
   137  130  132 ar  
   138  130  140 1   
   139  131  133 ar  
   140  131  141 1   
   141  132  133 ar  
   142  132  142 1   
   143  133  134 1   
   144  134  143 1   
   145  144  145 1   
   146  144  153 1   
   147  145  146 1   
   148  145  148 1   
   149  145  154 1   
   150  146  147 2   
   151  146  159 1   
   152  148  149 1   
   153  148  155 1   
   154  148  156 1   
   155  149  150 1   
   156  149  157 1   
   157  149  158 1   
   158  150  151 1   
   159  150  152 1   
   160  159  160 1   
   161  159  168 1   
   162  160  161 1   
   163  160  163 1   
   164  160  169 1   
   165  161  162 2   
   166  161  174 1   
   167  163  164 1   
   168  163  170 1   
   169  163  171 1   
   170  164  165 1   
   171  164  172 1   
   172  164  173 1   
   173  165  166 1   
   174  165  167 1   
   175  174  175 1   
   176  174  179 1   
   177  175  176 1   
   178  175  177 1   
   179  175  178 1   
   180  181  182 1   
   181  181  183 1   
   182  184  186 1   
   183  184  188 1   
   184  185  187 1   
   185  185  189 1   
   186  190  191 1   
   187  190  192 1   
@<TRIPOS>SUBSTRUCTURE
     1 MOL         1 TEMP              0 ****  ****    0 ROOT
