@<TRIPOS>MOLECULE
MOL
  181   177     1     0     0
SMALL
resp


@<TRIPOS>ATOM
      1 C1         -0.8030    6.8510    2.5880 c3        1 MOL     -0.352343
      2 C2         -2.0920    6.7380    1.8140 c         1 MOL      0.721506
      3 O1         -2.2130    7.5280    0.8610 o         1 MOL     -0.609911
      4 H1          0.0030    7.1380    1.9120 hc        1 MOL      0.080338
      5 H2         -0.9110    7.6070    3.3660 hc        1 MOL      0.080338
      6 H3         -0.5680    5.8900    3.0460 hc        1 MOL      0.080338
      7 N1         -3.0830    5.9760    2.2440 n         1 MOL     -0.585033
      8 C3         -4.3820    5.9970    1.5260 c3        1 MOL      0.122145
      9 C4         -4.2990    4.9790    0.3760 c         1 MOL      0.768962
     10 O2         -3.9670    3.8200    0.5260 o         1 MOL     -0.660105
     11 C5         -5.5370    5.5670    2.4580 c3        1 MOL     -0.127383
     12 C6         -6.9520    5.6240    1.8310 c         1 MOL      0.623622
     13 O3         -7.1530    6.3790    0.8250 o         1 MOL     -0.700681
     14 O4         -7.7590    4.8110    2.3000 o         1 MOL     -0.700681
     15 H4         -2.9840    5.4940    3.1290 hn        1 MOL      0.306023
     16 H5         -4.6870    6.9690    1.1310 h1        1 MOL      0.012812
     17 H6         -5.4880    6.1030    3.3990 hc        1 MOL      0.017599
     18 H7         -5.3650    4.5490    2.8020 hc        1 MOL      0.017599
     19 N2         -4.6540    5.4150   -0.7990 n         1 MOL     -0.638463
     20 C7         -4.6880    4.6490   -1.9840 c3        1 MOL      0.451708
     21 C8         -3.3530    3.9250   -2.3510 c         1 MOL      0.374210
     22 O5         -2.3000    4.5160   -2.1810 o         1 MOL     -0.532631
     23 C9         -5.0820    5.6010   -3.1350 c3        1 MOL     -0.396694
     24 H8         -5.0260    6.3480   -0.8700 hn        1 MOL      0.306003
     25 H9         -5.3960    3.8580   -1.7630 h1        1 MOL      0.012895
     26 H10        -5.9560    6.1710   -2.8440 hc        1 MOL      0.094175
     27 H11        -4.2100    6.1930   -3.4100 hc        1 MOL      0.094175
     28 H12        -5.3260    5.0050   -4.0110 hc        1 MOL      0.094175
     29 N3         -3.4440    2.7020   -2.7980 n         1 MOL     -0.274266
     30 C10        -4.5190    1.8180   -3.2370 c3        1 MOL     -0.013233
     31 C11        -5.0120    0.7990   -2.1490 c         1 MOL      0.557937
     32 O6         -4.4520    0.8240   -1.0200 o         1 MOL     -0.394115
     33 C12        -4.0770    0.9160   -4.4370 c3        1 MOL     -0.014141
     34 C13        -2.9340    0.0120   -4.0710 c         1 MOL      0.603601
     35 O7         -2.8270   -1.0460   -4.6960 o         1 MOL     -0.645403
     36 O8         -2.1270    0.3060   -3.0970 o         1 MOL     -0.645403
     37 H13        -2.5750    2.1890   -2.7880 hn        1 MOL      0.181211
     38 H14        -5.3850    2.4210   -3.5200 h1        1 MOL      0.001084
     39 H15        -3.9110    1.5910   -5.2800 hc        1 MOL     -0.000115
     40 H16        -4.9420    0.3120   -4.6960 hc        1 MOL     -0.000115
     41 N4         -5.9340   -0.1230   -2.5070 n         1 MOL     -0.481461
     42 C14        -6.4890   -1.2080   -1.6570 c3        1 MOL     -0.119510
     43 C15        -7.4900   -0.6580   -0.6260 c         1 MOL      0.429769
     44 O9         -8.0810    0.4020   -0.7890 o         1 MOL     -0.490981
     45 H17        -6.3840   -0.0490   -3.4120 hn        1 MOL      0.328880
     46 H18        -5.6000   -1.6240   -1.1670 h1        1 MOL      0.110841
     47 H19        -7.0340   -1.9210   -2.2760 h1        1 MOL      0.110841
     48 N5         -7.6220   -1.2070    0.5360 n         1 MOL     -0.422178
     49 C16        -7.0430   -2.4650    1.0260 c3        1 MOL      0.417537
     50 C17        -5.7560   -2.2290    1.9050 c         1 MOL      0.376534
     51 O10        -5.4900   -1.1070    2.3050 o         1 MOL     -0.507034
     52 C18        -8.1450   -3.2290    1.7580 c3        1 MOL     -0.303445
     53 C19        -7.9040   -4.7220    2.2430 c         1 MOL      0.604776
     54 N6         -8.9510   -5.4720    2.5320 n         1 MOL     -0.762616
     55 O11        -6.8670   -5.3470    2.0730 o         1 MOL     -0.476244
     56 H20        -8.4210   -0.8710    1.0560 hn        1 MOL      0.297151
     57 H21        -6.7360   -3.0780    0.1790 h1        1 MOL     -0.055482
     58 H22        -9.0120   -3.1860    1.0920 hc        1 MOL      0.072119
     59 H23        -8.4130   -2.6570    2.6490 hc        1 MOL      0.072119
     60 H24        -9.8430   -5.0250    2.4050 hn        1 MOL      0.365843
     61 H25        -8.8310   -6.4260    2.8470 hn        1 MOL      0.365843
     62 N7         -5.0810   -3.3010    2.2170 n         1 MOL     -0.262642
     63 C20        -3.9680   -3.4090    3.1960 c3        1 MOL     -0.125024
     64 C21        -2.7200   -4.0870    2.6540 c         1 MOL      0.549814
     65 O12        -1.8210   -4.3480    3.4400 o         1 MOL     -0.557559
     66 H26        -5.4460   -4.1770    1.8750 hn        1 MOL      0.152357
     67 H27        -4.2980   -3.9570    4.0860 h1        1 MOL      0.111271
     68 H28        -3.5870   -2.4600    3.5640 h1        1 MOL      0.111271
     69 N8         -2.6510   -4.4080    1.3400 n         1 MOL     -0.392717
     70 C22        -1.4250   -5.0260    0.7340 c3        1 MOL     -0.056265
     71 C23        -0.2670   -3.9980    0.6070 c         1 MOL      0.675607
     72 O13        -0.4860   -2.9490    0.0200 o         1 MOL     -0.597067
     73 C24        -1.7720   -5.6130   -0.6470 c3        1 MOL      0.391978
     74 C25        -0.5910   -6.3030   -1.3670 c3        1 MOL     -0.337780
     75 O14        -2.7800   -6.6270   -0.5040 oh        1 MOL     -0.620323
     76 H29        -3.3530   -4.0370    0.7200 hn        1 MOL      0.234269
     77 H30        -1.1340   -5.7660    1.4840 h1        1 MOL      0.059358
     78 H31        -2.0920   -4.7890   -1.2800 h1        1 MOL     -0.004562
     79 H32        -3.4570   -6.3120    0.1010 ho        1 MOL      0.346287
     80 H33        -0.9840   -6.7380   -2.2840 hc        1 MOL      0.108896
     81 H34         0.1700   -5.5400   -1.5560 hc        1 MOL      0.108896
     82 H35        -0.1690   -7.0750   -0.7270 hc        1 MOL      0.108896
     83 N9          0.9570   -4.3910    1.0130 n         1 MOL     -0.557253
     84 C26         2.2050   -3.6580    0.8230 c3        1 MOL      0.012384
     85 C27         2.7930   -3.7440   -0.5420 c         1 MOL      0.206676
     86 O15         2.9720   -4.8790   -1.0220 o         1 MOL     -0.519532
     87 C28         3.2250   -4.0090    1.9580 c3        1 MOL      0.239435
     88 C29         4.6180   -3.4730    1.7380 c3        1 MOL      0.033465
     89 C30         2.7190   -3.7300    3.3900 c3        1 MOL     -0.361052
     90 C31         5.6530   -3.7540    2.8700 c3        1 MOL     -0.285649
     91 H36         0.9360   -5.2440    1.5600 hn        1 MOL      0.308229
     92 H37         2.0270   -2.5920    0.9360 h1        1 MOL      0.196221
     93 H38         3.3120   -5.0930    1.9920 hc        1 MOL     -0.014356
     94 H39         4.5540   -2.3880    1.7390 hc        1 MOL      0.048834
     95 H40         5.0630   -3.7970    0.8010 hc        1 MOL      0.048834
     96 H41         3.1350   -4.4770    4.0630 hc        1 MOL      0.091092
     97 H42         2.9980   -2.6880    3.5380 hc        1 MOL      0.091092
     98 H43         1.6520   -3.8200    3.5750 hc        1 MOL      0.091092
     99 H44         6.6270   -3.5320    2.4330 hc        1 MOL      0.053594
    100 H45         5.4090   -3.1300    3.7170 hc        1 MOL      0.053594
    101 H46         5.5670   -4.8140    3.1270 hc        1 MOL      0.053594
    102 N10         3.2470   -2.6220   -1.1220 n         1 MOL     -0.049189
    103 C32         3.9400   -2.6140   -2.4030 c3        1 MOL      0.070173
    104 C33         5.2160   -1.7390   -2.4100 c         1 MOL      0.402669
    105 O16         5.8680   -1.5130   -3.5040 o         1 MOL     -0.572110
    106 C34         2.9610   -2.3410   -3.5110 c3        1 MOL      0.062128
    107 C35         1.5730   -2.8870   -3.3110 c         1 MOL      0.776449
    108 O17         0.7490   -2.3140   -2.6250 o         1 MOL     -0.735814
    109 O18         1.2540   -3.9110   -3.9260 o         1 MOL     -0.735814
    110 H47         3.1590   -1.8090   -0.5250 hn        1 MOL     -0.040209
    111 H48         4.3880   -3.5850   -2.6240 h1        1 MOL      0.093464
    112 H49         3.3470   -2.7740   -4.4370 hc        1 MOL     -0.051464
    113 H50         2.8950   -1.2590   -3.6200 hc        1 MOL     -0.051464
    114 N11         5.6130   -1.2010   -1.2970 n         1 MOL     -0.436988
    115 C36         6.6440   -0.1140   -1.2500 c3        1 MOL      0.707542
    116 C37         6.2180    1.1320   -0.4130 c         1 MOL      0.037418
    117 O19         6.7540    1.2630    0.7060 o         1 MOL     -0.377959
    118 C38         8.0510   -0.5280   -0.8740 c3        1 MOL     -0.507984
    119 C39         9.2490    0.4200   -1.0050 ca        1 MOL      0.236043
    120 C40        10.2060    0.3800   -0.0150 ca        1 MOL     -0.178102
    121 C41         9.3730    1.3040   -2.0870 ca        1 MOL     -0.178102
    122 C42        11.3740    1.1810   -0.1310 ca        1 MOL     -0.146557
    123 C43        10.4300    2.1650   -2.0910 ca        1 MOL     -0.146557
    124 C44        11.4060    2.1460   -1.0910 ca        1 MOL     -0.074166
    125 H51         5.0920   -1.3710   -0.4530 hn        1 MOL      0.148891
    126 H52         6.7550    0.2360   -2.2790 h1        1 MOL     -0.044240
    127 H53         8.2990   -1.4130   -1.4590 hc        1 MOL      0.119281
    128 H54         7.9490   -0.7760    0.1760 hc        1 MOL      0.119281
    129 H55         9.9920   -0.1510    0.9110 ha        1 MOL      0.127834
    130 H56         8.6340    1.3560   -2.8820 ha        1 MOL      0.127834
    131 H57        12.1330    1.2040    0.6390 ha        1 MOL      0.106320
    132 H58        10.5550    2.8750   -2.8900 ha        1 MOL      0.106320
    133 H59        12.2400    2.8310   -1.1350 ha        1 MOL      0.082128
    134 N12         5.2270    1.9700   -0.7760 n         1 MOL      0.018082
    135 C45         4.8530    3.2200   -0.0940 c3        1 MOL      0.014189
    136 C46         4.6510    3.0830    1.4250 c         1 MOL      0.158056
    137 O20         4.9150    4.0430    2.1580 o         1 MOL     -0.511559
    138 C47         3.5800    3.6910   -0.7720 c3        1 MOL     -0.037282
    139 C48         3.7230    3.1100   -2.1650 c3        1 MOL      0.169698
    140 C49         4.4380    1.7730   -1.9980 c3        1 MOL     -0.292577
    141 H60         5.6090    3.9950   -0.2200 h1        1 MOL      0.076411
    142 H61         2.6930    3.2960   -0.2940 hc        1 MOL      0.059213
    143 H62         3.3950    4.7710   -0.8240 hc        1 MOL      0.059213
    144 H63         2.7580    3.1880   -2.6540 hc        1 MOL     -0.030887
    145 H64         4.3780    3.7970   -2.7040 hc        1 MOL     -0.030887
    146 H65         3.7310    0.9840   -1.7480 h1        1 MOL      0.128252
    147 H66         5.0490    1.4820   -2.8580 h1        1 MOL      0.128252
    148 N13         4.3170    1.9540    1.9410 n         1 MOL      0.115769
    149 C50         4.0110    1.6410    3.3190 c3        1 MOL     -0.227207
    150 C51         5.2040    1.6080    4.2380 c         1 MOL      0.451842
    151 O21         5.1030    1.8380    5.4660 o         1 MOL     -0.555495
    152 C52         3.3240    0.2580    3.2990 c3        1 MOL     -0.055306
    153 C53         1.9590    0.1940    2.5430 c3        1 MOL     -0.039285
    154 C54         2.1150    0.0400    1.0060 c         1 MOL      0.335156
    155 O22         1.1120    0.2970    0.3340 o         1 MOL     -0.536627
    156 O23         3.1680   -0.4940    0.5150 o         1 MOL     -0.536627
    157 H67         4.1990    1.2040    1.2690 hn        1 MOL      0.223844
    158 H68         3.3330    2.4280    3.6390 h1        1 MOL      0.142707
    159 H69         3.1590   -0.1490    4.2900 hc        1 MOL      0.032150
    160 H70         3.9790   -0.4840    2.8360 hc        1 MOL      0.032150
    161 H71         1.2560    1.0110    2.6920 hc        1 MOL      0.034392
    162 H72         1.4320   -0.7250    2.8030 hc        1 MOL      0.034392
    163 N14         6.4270    1.4230    3.7040 n         1 MOL     -0.110215
    164 C55         7.7440    1.6390    4.4680 c3        1 MOL     -0.219418
    165 H73         8.5690    1.6940    3.7590 h1        1 MOL      0.094563
    166 H74         7.6880    2.5700    5.0320 h1        1 MOL      0.094563
    167 H75         7.9080    0.8070    5.1520 h1        1 MOL      0.094563
    168 H76         6.5080    1.1470    2.7400 hn        1 MOL      0.108304
    169 Ca1        -0.6570   -0.5880   -1.2940 Ca        1 MOL      1.745767
    170 O24         1.0810    0.7750   -2.9290 oh        1 MOL     -0.889978
    171 H77         1.2030    0.4610   -3.8190 ho        1 MOL      0.419301
    172 H78         1.1320    1.7270   -2.9930 ho        1 MOL      0.419301
    173 O25        -2.7290   -0.9010    0.3400 oh        1 MOL     -0.889978
    174 H79        -2.9130   -1.2670    1.2130 ho        1 MOL      0.419301
    175 H80        -3.3220   -0.1620    0.2540 ho        1 MOL      0.419301
    176 O26        -1.7310    1.9370   -0.2610 oh        1 MOL     -0.889978
    177 H81        -2.5820    2.2680   -0.5570 ho        1 MOL      0.419301
    178 H82        -1.4110    2.5970    0.3410 ho        1 MOL      0.419301
    179 O27        -2.2930   -2.5490   -2.6120 oh        1 MOL     -0.889978
    180 H83        -1.9700   -3.3210   -3.0780 ho        1 MOL      0.419301
    181 H84        -2.7380   -2.0420   -3.2820 ho        1 MOL      0.419301
@<TRIPOS>BOND
     1    1    2 1   
     2    1    4 1   
     3    1    5 1   
     4    1    6 1   
     5    2    3 2   
     6    2    7 1   
     7    7    8 1   
     8    7   15 1   
     9    8    9 1   
    10    8   11 1   
    11    8   16 1   
    12    9   10 2   
    13    9   19 1   
    14   11   12 1   
    15   11   17 1   
    16   11   18 1   
    17   12   13 1   
    18   12   14 1   
    19   19   20 1   
    20   19   24 1   
    21   20   21 1   
    22   20   23 1   
    23   20   25 1   
    24   21   22 2   
    25   21   29 1   
    26   23   26 1   
    27   23   27 1   
    28   23   28 1   
    29   29   30 1   
    30   29   37 1   
    31   30   31 1   
    32   30   33 1   
    33   30   38 1   
    34   31   32 2   
    35   31   41 1   
    36   33   34 1   
    37   33   39 1   
    38   33   40 1   
    39   34   35 1   
    40   34   36 1   
    41   41   42 1   
    42   41   45 1   
    43   42   43 1   
    44   42   46 1   
    45   42   47 1   
    46   43   44 2   
    47   43   48 1   
    48   48   49 1   
    49   48   56 1   
    50   49   50 1   
    51   49   52 1   
    52   49   57 1   
    53   50   51 2   
    54   50   62 1   
    55   52   53 1   
    56   52   58 1   
    57   52   59 1   
    58   53   54 1   
    59   53   55 2   
    60   54   60 1   
    61   54   61 1   
    62   62   63 1   
    63   62   66 1   
    64   63   64 1   
    65   63   67 1   
    66   63   68 1   
    67   64   65 2   
    68   64   69 1   
    69   69   70 1   
    70   69   76 1   
    71   70   71 1   
    72   70   73 1   
    73   70   77 1   
    74   71   72 2   
    75   71   83 1   
    76   73   74 1   
    77   73   75 1   
    78   73   78 1   
    79   74   80 1   
    80   74   81 1   
    81   74   82 1   
    82   75   79 1   
    83   83   84 1   
    84   83   91 1   
    85   84   85 1   
    86   84   87 1   
    87   84   92 1   
    88   85   86 2   
    89   85  102 1   
    90   87   88 1   
    91   87   89 1   
    92   87   93 1   
    93   88   90 1   
    94   88   94 1   
    95   88   95 1   
    96   89   96 1   
    97   89   97 1   
    98   89   98 1   
    99   90   99 1   
   100   90  100 1   
   101   90  101 1   
   102  102  103 1   
   103  102  110 1   
   104  103  104 1   
   105  103  106 1   
   106  103  111 1   
   107  104  105 2   
   108  104  114 1   
   109  106  107 1   
   110  106  112 1   
   111  106  113 1   
   112  107  108 1   
   113  107  109 1   
   114  114  115 1   
   115  114  125 1   
   116  115  116 1   
   117  115  118 1   
   118  115  126 1   
   119  116  117 2   
   120  116  134 1   
   121  118  119 1   
   122  118  127 1   
   123  118  128 1   
   124  119  120 ar  
   125  119  121 ar  
   126  120  122 ar  
   127  120  129 1   
   128  121  123 ar  
   129  121  130 1   
   130  122  124 ar  
   131  122  131 1   
   132  123  124 ar  
   133  123  132 1   
   134  124  133 1   
   135  134  135 1   
   136  134  140 1   
   137  135  136 1   
   138  135  138 1   
   139  135  141 1   
   140  136  137 2   
   141  136  148 1   
   142  138  139 1   
   143  138  142 1   
   144  138  143 1   
   145  139  140 1   
   146  139  144 1   
   147  139  145 1   
   148  140  146 1   
   149  140  147 1   
   150  148  149 1   
   151  148  157 1   
   152  149  150 1   
   153  149  152 1   
   154  149  158 1   
   155  150  151 2   
   156  150  163 1   
   157  152  153 1   
   158  152  159 1   
   159  152  160 1   
   160  153  154 1   
   161  153  161 1   
   162  153  162 1   
   163  154  155 1   
   164  154  156 1   
   165  163  164 1   
   166  163  168 1   
   167  164  165 1   
   168  164  166 1   
   169  164  167 1   
   170  170  171 1   
   171  170  172 1   
   172  173  174 1   
   173  173  175 1   
   174  176  177 1   
   175  176  178 1   
   176  179  180 1   
   177  179  181 1   
@<TRIPOS>SUBSTRUCTURE
     1 MOL         1 TEMP              0 ****  ****    0 ROOT
