@<TRIPOS>MOLECULE
MOL
  192   187     1     0     0
SMALL
resp


@<TRIPOS>ATOM
      1 C1         -4.9770   -3.5650    5.4860 c3        1 MOL     -0.282615
      2 C2         -4.7550   -2.9510    4.0700 c         1 MOL      0.710213
      3 O1         -4.5580   -3.6100    3.0720 o         1 MOL     -0.577665
      4 H1         -4.9760   -2.7690    6.2300 hc        1 MOL      0.067667
      5 H2         -5.9360   -4.0830    5.5120 hc        1 MOL      0.067667
      6 H3         -4.1760   -4.2700    5.7070 hc        1 MOL      0.067667
      7 N1         -4.7200   -1.5990    3.9640 n         1 MOL     -0.446576
      8 C3         -4.5460   -0.9010    2.6800 c3        1 MOL      0.131510
      9 C4         -3.0590   -0.9400    2.2100 c         1 MOL     -0.014954
     10 O2         -2.8170   -0.3430    1.1340 o         1 MOL     -0.198376
     11 C5         -5.1650    0.5290    2.8130 c3        1 MOL     -0.255471
     12 C6         -4.3960    1.3160    3.9010 c         1 MOL      0.770989
     13 O3         -3.5230    2.1810    3.6660 o         1 MOL     -0.695639
     14 O4         -4.7400    1.1780    5.0780 o         1 MOL     -0.695639
     15 H4         -4.7250   -1.0280    4.8000 hn        1 MOL      0.225576
     16 H5         -4.9790   -1.5060    1.8830 h1        1 MOL      0.079032
     17 H6         -6.2010    0.3590    3.1000 hc        1 MOL      0.068036
     18 H7         -5.1880    1.0040    1.8290 hc        1 MOL      0.068036
     19 N2         -2.1310   -1.5930    2.9420 n         1 MOL     -0.276768
     20 C7         -0.7530   -1.4420    2.5390 c3        1 MOL      0.148961
     21 C8         -0.2850   -2.4510    1.4880 c         1 MOL      0.328637
     22 O5         -0.5610   -3.6200    1.6660 o         1 MOL     -0.477301
     23 C9          0.1960   -1.5320    3.7080 c3        1 MOL     -0.327061
     24 C10         0.1400   -0.3820    4.6970 c3        1 MOL      0.038627
     25 C11         1.4150   -0.2890    5.5420 c3        1 MOL      0.030801
     26 C12         1.3300    0.9480    6.4470 c3        1 MOL     -0.010059
     27 N3          0.3560    0.7110    7.5770 n4        1 MOL     -0.449956
     28 H8         -2.4700   -2.0350    3.7810 hn        1 MOL      0.288854
     29 H9         -0.6110   -0.4600    2.0940 h1        1 MOL      0.200018
     30 H10         1.2310   -1.4520    3.3810 hc        1 MOL      0.106864
     31 H11        -0.1000   -2.4640    4.2070 hc        1 MOL      0.106864
     32 H12        -0.7110   -0.4660    5.3770 hc        1 MOL      0.016048
     33 H13         0.0340    0.5660    4.1580 hc        1 MOL      0.016048
     34 H14         2.2310   -0.0490    4.8620 hc        1 MOL      0.032245
     35 H15         1.6880   -1.1880    6.0920 hc        1 MOL      0.032245
     36 H16         1.0160    1.8040    5.8500 hx        1 MOL      0.102897
     37 H17         2.3190    1.1470    6.8720 hx        1 MOL      0.102897
     38 H18         0.7750    0.0350    8.2060 hn        1 MOL      0.351976
     39 H19         0.3270    1.6080    8.0300 hn        1 MOL      0.351976
     40 H20        -0.6140    0.5870    7.3380 hn        1 MOL      0.351976
     41 N4          0.4460   -2.0740    0.4450 n         1 MOL     -0.236087
     42 C13         0.9300   -0.7460   -0.0410 c3        1 MOL     -0.129124
     43 C14         1.4500    0.2140    0.9890 c         1 MOL      0.001830
     44 O6          0.9010    1.2370    1.2240 o         1 MOL     -0.407957
     45 C15        -0.0960   -0.1440   -0.9990 c3        1 MOL     -0.546146
     46 C16        -0.4190   -1.0270   -2.1550 c         1 MOL      0.764233
     47 O7         -1.4630   -0.7890   -2.7910 o         1 MOL     -0.728191
     48 O8          0.4040   -1.9630   -2.3150 o         1 MOL     -0.728191
     49 H21         0.4560   -2.7640   -0.2960 hn        1 MOL      0.157369
     50 H22         1.8330   -0.9040   -0.6300 h1        1 MOL      0.107703
     51 H23         0.2260    0.8280   -1.3400 hc        1 MOL      0.265013
     52 H24        -1.0180    0.0270   -0.4280 hc        1 MOL      0.265013
     53 N5          2.5250   -0.0740    1.7060 n         1 MOL      0.032527
     54 C17         3.2740   -1.2540    1.5930 c3        1 MOL     -0.237471
     55 C18         4.6650   -1.0250    2.2600 c         1 MOL      0.554016
     56 O9          4.7500   -0.0870    3.0480 o         1 MOL     -0.579127
     57 H25         2.8030    0.6110    2.3870 hn        1 MOL      0.238727
     58 H26         3.4080   -1.5650    0.5560 h1        1 MOL      0.127085
     59 H27         2.8520   -2.0200    2.2330 h1        1 MOL      0.127085
     60 N6          5.6610   -1.9540    2.1800 n         1 MOL     -0.345805
     61 C19         5.8010   -3.0870    1.2850 c3        1 MOL     -0.187867
     62 C20         6.7800   -2.7670    0.0560 c         1 MOL      0.573231
     63 O10         7.8630   -2.2820    0.2630 o         1 MOL     -0.441195
     64 C21         6.1620   -4.4190    2.0640 c3        1 MOL     -0.059309
     65 C22         7.2130   -4.3300    3.1960 c         1 MOL      0.717996
     66 O11         7.8530   -3.2720    3.4040 o         1 MOL     -0.677159
     67 O12         7.3360   -5.3490    3.8310 o         1 MOL     -0.677159
     68 H28         6.4410   -1.7830    2.8010 hn        1 MOL      0.287092
     69 H29         4.8310   -3.2680    0.8230 h1        1 MOL      0.044535
     70 H30         6.3550   -5.2780    1.4090 hc        1 MOL      0.013152
     71 H31         5.2270   -4.7100    2.5400 hc        1 MOL      0.013152
     72 N7          6.3650   -2.9570   -1.1950 n         1 MOL     -0.414384
     73 C23         7.0640   -2.5340   -2.4330 c3        1 MOL     -0.024826
     74 C24         7.1050   -1.0010   -2.4980 c         1 MOL      0.400956
     75 O13         8.0890   -0.3630   -2.8360 o         1 MOL     -0.492574
     76 H32         5.4220   -3.2670   -1.3630 hn        1 MOL      0.233390
     77 H33         6.5080   -2.9750   -3.2620 h1        1 MOL      0.080721
     78 H34         8.0760   -2.9070   -2.5660 h1        1 MOL      0.080721
     79 N8          6.0340   -0.3290   -2.0240 n         1 MOL     -0.268527
     80 C25         5.8600    1.1150   -2.0640 c3        1 MOL      0.043150
     81 C26         4.8620    1.5760   -1.0150 c         1 MOL      0.198962
     82 O14         3.9380    0.8730   -0.7640 o         1 MOL     -0.319331
     83 C27         5.3440    1.5380   -3.4600 c3        1 MOL      0.213031
     84 C28         5.9630    2.8010   -4.0440 c3        1 MOL     -0.406296
     85 O15         3.9520    1.5380   -3.4330 oh        1 MOL     -0.457375
     86 H35         5.3080   -0.9130   -1.6150 hn        1 MOL      0.156709
     87 H36         6.8790    1.5060   -1.9460 h1        1 MOL      0.095808
     88 H37         5.7150    0.7920   -4.1640 h1        1 MOL      0.036800
     89 H38         3.6750    0.6180   -3.3710 ho        1 MOL      0.316114
     90 H39         5.7170    3.7240   -3.5120 hc        1 MOL      0.122658
     91 H40         7.0510    2.7680   -4.0700 hc        1 MOL      0.122658
     92 H41         5.5750    2.9170   -5.0520 hc        1 MOL      0.122658
     93 N9          5.1300    2.7510   -0.4570 n         1 MOL     -0.192048
     94 C29         4.2180    3.2640    0.5700 c3        1 MOL      0.056227
     95 C30         2.7510    3.7210    0.1590 c         1 MOL      0.242328
     96 O16         2.1760    4.4880    0.9030 o         1 MOL     -0.451914
     97 C31         4.9460    4.2860    1.3930 c3        1 MOL      0.036132
     98 C32         5.5460    5.3970    0.4780 c3        1 MOL      0.166773
     99 C33         6.1030    3.5630    2.1360 c3        1 MOL     -0.295241
    100 C34         4.5060    6.0790   -0.4080 c3        1 MOL     -0.340757
    101 H42         5.9490    3.2810   -0.7070 hn        1 MOL      0.244886
    102 H43         4.0580    2.5070    1.3390 h1        1 MOL      0.080054
    103 H44         4.2740    4.6460    2.1770 hc        1 MOL      0.066169
    104 H45         6.3160    5.0390   -0.2030 hc        1 MOL     -0.031418
    105 H46         5.9590    6.1470    1.1440 hc        1 MOL     -0.031418
    106 H47         6.6270    4.3340    2.7100 hc        1 MOL      0.068486
    107 H48         5.6450    2.8130    2.7870 hc        1 MOL      0.068486
    108 H49         6.7550    2.9710    1.4940 hc        1 MOL      0.068486
    109 H50         4.3820    5.5510   -1.3480 hc        1 MOL      0.085378
    110 H51         3.6350    6.1920    0.2500 hc        1 MOL      0.085378
    111 H52         4.9430    7.0680   -0.4970 hc        1 MOL      0.085378
    112 N10         2.2050    3.3240   -1.0220 n         1 MOL     -0.034765
    113 C35         1.2780    4.1430   -1.7410 c3        1 MOL     -0.212978
    114 C36        -0.1800    4.0730   -1.2240 c         1 MOL      0.415412
    115 O17        -0.9310    4.9380   -1.6260 o         1 MOL     -0.594555
    116 C37         1.2430    3.8560   -3.2590 c3        1 MOL      0.385900
    117 C38         0.6950    2.4830   -3.6470 c3        1 MOL     -0.368548
    118 O18         2.4260    3.9480   -3.9560 oh        1 MOL     -0.622639
    119 H53         2.6480    2.6220   -1.6000 hn        1 MOL      0.132443
    120 H54         1.5650    5.1790   -1.6270 h1        1 MOL      0.109871
    121 H55         0.5890    4.5960   -3.7210 h1        1 MOL      0.055281
    122 H56         2.8970    3.1260   -3.7730 ho        1 MOL      0.334505
    123 H57         1.3540    1.7500   -3.1900 hc        1 MOL      0.096260
    124 H58        -0.3080    2.4370   -3.2320 hc        1 MOL      0.096260
    125 H59         0.5800    2.4080   -4.7290 hc        1 MOL      0.096260
    126 N11        -0.5440    3.1750   -0.3730 n         1 MOL     -0.094530
    127 C39        -1.9030    2.8210    0.0660 c3        1 MOL      0.024016
    128 C40        -2.9160    2.3900   -1.0400 c         1 MOL      0.404403
    129 O19        -2.7100    2.6020   -2.2370 o         1 MOL     -0.513219
    130 C41        -2.3540    4.0130    0.9570 c3        1 MOL      0.294525
    131 C42        -1.4980    4.1480    2.2660 c3        1 MOL     -0.273842
    132 O20        -3.5660    3.6770    1.5520 oh        1 MOL     -0.706578
    133 H60         0.1260    2.5150   -0.0020 hn        1 MOL      0.141831
    134 H61        -1.8770    1.9650    0.7370 h1        1 MOL      0.020065
    135 H62        -2.5070    4.9810    0.4900 h1        1 MOL      0.036085
    136 H63        -3.4040    3.0450    2.2480 ho        1 MOL      0.420864
    137 H64        -1.8710    4.9120    2.9530 hc        1 MOL      0.063377
    138 H65        -1.4730    3.1410    2.6900 hc        1 MOL      0.063377
    139 H66        -0.4630    4.4400    2.0880 hc        1 MOL      0.063377
    140 N12        -3.9840    1.6260   -0.6460 n         1 MOL     -0.136951
    141 C43        -5.0430    1.3430   -1.5380 c3        1 MOL      0.090870
    142 C44        -5.2590   -0.0720   -1.8920 c         1 MOL      0.612900
    143 O21        -6.1580   -0.2950   -2.7170 o         1 MOL     -0.632553
    144 C45        -6.3060    1.9940   -0.9930 c3        1 MOL     -0.362207
    145 C46        -6.4380    3.5150   -1.2960 c3        1 MOL      0.019517
    146 C47        -7.5550    4.2410   -0.5670 c3        1 MOL     -0.036538
    147 C48        -7.9640    5.6450   -1.1060 c3        1 MOL      0.008627
    148 N13        -6.9510    6.6970   -0.9160 n4        1 MOL     -0.488282
    149 H67        -4.1300    1.3840    0.3260 hn        1 MOL      0.085669
    150 H68        -4.8210    1.8300   -2.4880 h1        1 MOL      0.053884
    151 H69        -6.3420    1.8850    0.0920 hc        1 MOL      0.126910
    152 H70        -7.1850    1.4780   -1.3860 hc        1 MOL      0.126910
    153 H71        -6.7030    3.6050   -2.3520 hc        1 MOL      0.041137
    154 H72        -5.4620    3.9880   -1.1970 hc        1 MOL      0.041137
    155 H73        -7.2580    4.3850    0.4670 hc        1 MOL      0.049890
    156 H74        -8.4720    3.6420   -0.5940 hc        1 MOL      0.049890
    157 H75        -8.8990    5.8430   -0.5730 hx        1 MOL      0.087496
    158 H76        -8.1760    5.4870   -2.1620 hx        1 MOL      0.087496
    159 H77        -6.4430    6.8950   -1.7640 hn        1 MOL      0.372030
    160 H78        -7.3360    7.5500   -0.5510 hn        1 MOL      0.372030
    161 H79        -6.4010    6.3690   -0.1300 hn        1 MOL      0.372030
    162 N14        -4.4490   -1.0160   -1.3420 n         1 MOL     -0.375497
    163 C49        -4.5860   -2.4770   -1.4530 c3        1 MOL     -0.030992
    164 C50        -5.9890   -2.8640   -0.9840 c         1 MOL      0.289197
    165 O22        -6.4330   -2.4920    0.1170 o         1 MOL     -0.466274
    166 C51        -3.5050   -3.1350   -0.6390 c3        1 MOL      0.645314
    167 C52        -3.5370   -4.6160   -0.8480 c3        1 MOL     -0.904788
    168 C53        -3.5060   -5.0700   -2.3540 c         1 MOL      0.879278
    169 O23        -4.6120   -5.1900   -2.9000 o         1 MOL     -0.767773
    170 O24        -2.4320   -5.0330   -2.9480 o         1 MOL     -0.767773
    171 H80        -3.7870   -0.7200   -0.6400 hn        1 MOL      0.169808
    172 H81        -4.4860   -2.6400   -2.5230 h1        1 MOL      0.131594
    173 H82        -3.4090   -2.8570    0.4070 hc        1 MOL     -0.091749
    174 H83        -2.6220   -2.6930   -1.1190 hc        1 MOL     -0.091749
    175 H84        -4.4510   -4.9500   -0.3560 hc        1 MOL      0.214159
    176 H85        -2.7020   -5.1110   -0.3440 hc        1 MOL      0.214159
    177 N15        -6.7640   -3.5980   -1.8000 n         1 MOL     -0.168254
    178 C54        -8.1890   -4.0190   -1.4930 c3        1 MOL     -0.283515
    179 H86        -8.5490   -4.6790   -2.2820 h1        1 MOL      0.114984
    180 H87        -8.2160   -4.5450   -0.5390 h1        1 MOL      0.114984
    181 H88        -8.8260   -3.1370   -1.4410 h1        1 MOL      0.114984
    182 H89        -6.3950   -3.8190   -2.7100 hn        1 MOL      0.322786
    183 Ca1        -0.1100   -4.0030   -3.6630 Ca        1 MOL      1.623715
    184 O25         0.7450   -2.0720   -5.3660 oh        1 MOL     -0.784460
    185 H90         1.5280   -1.7670   -5.8230 ho        1 MOL      0.395805
    186 H91         0.1090   -1.3690   -5.4790 ho        1 MOL      0.395805
    187 O26        -0.4990   -4.7780   -6.2710 oh        1 MOL     -0.784460
    188 H92        -0.7270   -5.6800   -6.0420 ho        1 MOL      0.395805
    189 H93        -0.0740   -4.8550   -7.1280 ho        1 MOL      0.395805
    190 O27        -2.3790   -2.5460   -4.7830 oh        1 MOL     -0.784460
    191 H94        -2.5900   -2.2170   -5.6550 ho        1 MOL      0.395805
    192 H95        -2.2450   -1.7580   -4.2540 ho        1 MOL      0.395805
@<TRIPOS>BOND
     1    1    2 1   
     2    1    4 1   
     3    1    5 1   
     4    1    6 1   
     5    2    3 2   
     6    2    7 1   
     7    7    8 1   
     8    7   15 1   
     9    8    9 1   
    10    8   11 1   
    11    8   16 1   
    12    9   10 2   
    13    9   19 1   
    14   11   12 1   
    15   11   17 1   
    16   11   18 1   
    17   12   13 1   
    18   12   14 1   
    19   19   20 1   
    20   19   28 1   
    21   20   21 1   
    22   20   23 1   
    23   20   29 1   
    24   21   22 2   
    25   21   41 1   
    26   23   24 1   
    27   23   30 1   
    28   23   31 1   
    29   24   25 1   
    30   24   32 1   
    31   24   33 1   
    32   25   26 1   
    33   25   34 1   
    34   25   35 1   
    35   26   27 1   
    36   26   36 1   
    37   26   37 1   
    38   27   38 1   
    39   27   39 1   
    40   27   40 1   
    41   41   42 1   
    42   41   49 1   
    43   42   43 1   
    44   42   45 1   
    45   42   50 1   
    46   43   44 2   
    47   43   53 1   
    48   45   46 1   
    49   45   51 1   
    50   45   52 1   
    51   46   47 1   
    52   46   48 1   
    53   53   54 1   
    54   53   57 1   
    55   54   55 1   
    56   54   58 1   
    57   54   59 1   
    58   55   56 2   
    59   55   60 1   
    60   60   61 1   
    61   60   68 1   
    62   61   62 1   
    63   61   64 1   
    64   61   69 1   
    65   62   63 2   
    66   62   72 1   
    67   64   65 1   
    68   64   70 1   
    69   64   71 1   
    70   65   66 1   
    71   65   67 1   
    72   72   73 1   
    73   72   76 1   
    74   73   74 1   
    75   73   77 1   
    76   73   78 1   
    77   74   75 2   
    78   74   79 1   
    79   79   80 1   
    80   79   86 1   
    81   80   81 1   
    82   80   83 1   
    83   80   87 1   
    84   81   82 2   
    85   81   93 1   
    86   83   84 1   
    87   83   85 1   
    88   83   88 1   
    89   84   90 1   
    90   84   91 1   
    91   84   92 1   
    92   85   89 1   
    93   93   94 1   
    94   93  101 1   
    95   94   95 1   
    96   94   97 1   
    97   94  102 1   
    98   95   96 2   
    99   95  112 1   
   100   97   98 1   
   101   97   99 1   
   102   97  103 1   
   103   98  100 1   
   104   98  104 1   
   105   98  105 1   
   106   99  106 1   
   107   99  107 1   
   108   99  108 1   
   109  100  109 1   
   110  100  110 1   
   111  100  111 1   
   112  112  113 1   
   113  112  119 1   
   114  113  114 1   
   115  113  116 1   
   116  113  120 1   
   117  114  115 2   
   118  114  126 1   
   119  116  117 1   
   120  116  118 1   
   121  116  121 1   
   122  117  123 1   
   123  117  124 1   
   124  117  125 1   
   125  118  122 1   
   126  126  127 1   
   127  126  133 1   
   128  127  128 1   
   129  127  130 1   
   130  127  134 1   
   131  128  129 2   
   132  128  140 1   
   133  130  131 1   
   134  130  132 1   
   135  130  135 1   
   136  131  137 1   
   137  131  138 1   
   138  131  139 1   
   139  132  136 1   
   140  140  141 1   
   141  140  149 1   
   142  141  142 1   
   143  141  144 1   
   144  141  150 1   
   145  142  143 2   
   146  142  162 1   
   147  144  145 1   
   148  144  151 1   
   149  144  152 1   
   150  145  146 1   
   151  145  153 1   
   152  145  154 1   
   153  146  147 1   
   154  146  155 1   
   155  146  156 1   
   156  147  148 1   
   157  147  157 1   
   158  147  158 1   
   159  148  159 1   
   160  148  160 1   
   161  148  161 1   
   162  162  163 1   
   163  162  171 1   
   164  163  164 1   
   165  163  166 1   
   166  163  172 1   
   167  164  165 2   
   168  164  177 1   
   169  166  167 1   
   170  166  173 1   
   171  166  174 1   
   172  167  168 1   
   173  167  175 1   
   174  167  176 1   
   175  168  169 1   
   176  168  170 1   
   177  177  178 1   
   178  177  182 1   
   179  178  179 1   
   180  178  180 1   
   181  178  181 1   
   182  184  185 1   
   183  184  186 1   
   184  187  188 1   
   185  187  189 1   
   186  190  191 1   
   187  190  192 1   
@<TRIPOS>SUBSTRUCTURE
     1 MOL         1 TEMP              0 ****  ****    0 ROOT
