@<TRIPOS>MOLECULE
MOL
  185   180     1     0     0
SMALL
resp


@<TRIPOS>ATOM
      1 C1          5.5200    0.4970    4.7160 c3        1 MOL     -0.395366
      2 C2          6.3360    0.1430    3.5270 c         1 MOL      0.712450
      3 O1          6.0050   -0.7990    2.8700 o         1 MOL     -0.571844
      4 H1          5.1520    1.5180    4.6130 hc        1 MOL      0.103745
      5 H2          4.6740   -0.1870    4.7930 hc        1 MOL      0.103745
      6 H3          6.1320    0.4200    5.6140 hc        1 MOL      0.103745
      7 N1          7.5450    0.7250    3.3030 n         1 MOL     -0.518386
      8 C3          8.5790    0.3610    2.3760 c3        1 MOL      0.146176
      9 C4          8.0010    0.0990    0.9400 c         1 MOL      0.451245
     10 O2          7.2330    0.9900    0.4830 o         1 MOL     -0.477227
     11 C5          9.6950    1.3810    2.2660 c3        1 MOL     -0.293669
     12 C6          9.2820    2.8250    1.8230 c         1 MOL      0.727798
     13 O3          9.8610    3.1720    0.7300 o         1 MOL     -0.683607
     14 O4          8.5780    3.5850    2.4950 o         1 MOL     -0.683607
     15 H4          7.9270    1.4120    3.9410 hn        1 MOL      0.299838
     16 H5          9.1040   -0.5060    2.7860 h1        1 MOL      0.009721
     17 H6         10.4860    0.9890    1.6400 hc        1 MOL      0.057251
     18 H7         10.1010    1.3650    3.2840 hc        1 MOL      0.057251
     19 N2          8.2740   -1.1170    0.4590 n         1 MOL     -0.510949
     20 C7          7.8070   -1.6670   -0.8330 c3        1 MOL      0.337361
     21 C8          6.4170   -2.3280   -0.7200 c         1 MOL      0.610317
     22 O5          6.1850   -3.3950   -1.2290 o         1 MOL     -0.552596
     23 C9          8.8280   -2.7570   -1.1280 c3        1 MOL     -0.503801
     24 C10        10.1860   -2.1170   -1.5930 c3        1 MOL      0.150707
     25 C11        11.0700   -3.2330   -2.2790 c3        1 MOL     -0.194940
     26 C12        12.4220   -2.5170   -2.5260 c3        1 MOL     -0.059257
     27 N3         12.3660   -1.6880   -3.7160 n4        1 MOL     -0.369542
     28 H8          8.6810   -1.7790    1.1000 hn        1 MOL      0.268136
     29 H9          7.7410   -0.9090   -1.6120 h1        1 MOL      0.034208
     30 H10         8.3590   -3.2370   -1.9840 hc        1 MOL      0.152716
     31 H11         8.9590   -3.3430   -0.2250 hc        1 MOL      0.152716
     32 H12        10.7480   -1.6270   -0.7850 hc        1 MOL      0.020776
     33 H13        10.1100   -1.3120   -2.3160 hc        1 MOL      0.020776
     34 H14        10.8380   -3.5810   -3.2810 hc        1 MOL      0.105481
     35 H15        11.0630   -4.0820   -1.5830 hc        1 MOL      0.105481
     36 H16        13.1300   -3.3420   -2.6790 hx        1 MOL      0.113148
     37 H17        12.7410   -1.9170   -1.6730 hx        1 MOL      0.113148
     38 H18        11.6870   -0.9290   -3.7330 hn        1 MOL      0.317024
     39 H19        13.1630   -1.0670   -3.7320 hn        1 MOL      0.317024
     40 H20        12.4260   -2.2700   -4.5350 hn        1 MOL      0.317024
     41 N4          5.4700   -1.6430   -0.1250 n         1 MOL     -0.820078
     42 C13         4.1330   -2.2580   -0.0160 c3        1 MOL      0.581734
     43 C14         3.5120   -2.7120   -1.3300 c         1 MOL      0.281430
     44 O6          3.6760   -2.1250   -2.4000 o         1 MOL     -0.429284
     45 C15         3.2780   -1.3170    0.7660 c3        1 MOL     -0.165877
     46 C16         1.8140   -1.7000    0.9280 c         1 MOL      0.715242
     47 O7          1.0310   -1.1810    0.0940 o         1 MOL     -0.726881
     48 O8          1.4410   -2.6100    1.6630 o         1 MOL     -0.726881
     49 H21         5.8160   -0.9780    0.5570 hn        1 MOL      0.400233
     50 H22         4.1010   -3.1750    0.5740 h1        1 MOL     -0.085123
     51 H23         3.3100   -0.3300    0.3110 hc        1 MOL      0.050802
     52 H24         3.7590   -1.2610    1.7450 hc        1 MOL      0.050802
     53 N5          2.5510   -3.6710   -1.2190 n         1 MOL     -0.188168
     54 C17         2.0040   -4.3750   -2.4390 c3        1 MOL     -0.305898
     55 C18         0.8910   -3.7140   -3.1330 c         1 MOL      0.601490
     56 O9          0.3440   -4.1420   -4.2030 o         1 MOL     -0.592026
     57 H25         2.4900   -4.1510   -0.3270 hn        1 MOL      0.254337
     58 H26         1.6500   -5.3500   -2.1260 h1        1 MOL      0.145800
     59 H27         2.8270   -4.4660   -3.1540 h1        1 MOL      0.145800
     60 N6          0.3520   -2.6420   -2.5880 n         1 MOL     -0.251626
     61 C19        -0.4610   -1.6370   -3.3310 c3        1 MOL      0.010163
     62 C20         0.0340   -0.2280   -3.0470 c         1 MOL      0.495666
     63 O10        -0.5110    0.7310   -3.6640 o         1 MOL     -0.557773
     64 C21        -2.0040   -1.8730   -3.1920 c3        1 MOL     -0.260368
     65 C22        -2.4080   -1.8620   -1.7320 c         1 MOL      0.610976
     66 N7         -3.5730   -2.3110   -1.3290 n         1 MOL     -0.590097
     67 O11        -1.6940   -1.4450   -0.8440 o         1 MOL     -0.659909
     68 H28         0.6500   -2.4350   -1.6490 hn        1 MOL      0.187774
     69 H29        -0.2530   -1.7810   -4.3870 h1        1 MOL      0.110575
     70 H30        -2.2380   -2.8080   -3.7030 hc        1 MOL      0.114950
     71 H31        -2.5480   -1.0260   -3.6150 hc        1 MOL      0.114950
     72 H32        -4.0530   -2.8810   -2.0080 hn        1 MOL      0.279195
     73 H33        -3.5280   -2.6620   -0.3870 hn        1 MOL      0.279195
     74 N8          1.1520   -0.0230   -2.2660 n         1 MOL     -0.047496
     75 C23         1.9320    1.2040   -2.2050 c3        1 MOL     -0.264541
     76 C24         1.2530    2.3950   -1.5460 c         1 MOL      0.514071
     77 O12         1.2280    3.5090   -2.1220 o         1 MOL     -0.547386
     78 H34         1.5470   -0.7610   -1.7150 hn        1 MOL     -0.091816
     79 H35         2.1530    1.4540   -3.2390 h1        1 MOL      0.141467
     80 H36         2.8470    1.0060   -1.6340 h1        1 MOL      0.141467
     81 N9          0.6830    2.1690   -0.4140 n         1 MOL     -0.277957
     82 C25        -0.0630    3.1880    0.2160 c3        1 MOL      0.292265
     83 C26        -1.3280    2.4430    0.7560 c         1 MOL      0.104374
     84 O13        -1.3390    1.2730    1.0900 o         1 MOL     -0.293982
     85 C27         0.7790    3.8460    1.3020 c3        1 MOL     -0.008474
     86 C28         2.1420    4.4030    0.7810 ca        1 MOL     -0.115488
     87 C29         2.2140    5.6750    0.1720 ca        1 MOL     -0.065553
     88 C30         3.3200    3.6770    0.9150 ca        1 MOL     -0.065553
     89 C31         3.4780    6.2800   -0.1120 ca        1 MOL     -0.294224
     90 C32         4.6310    4.2170    0.6520 ca        1 MOL     -0.294224
     91 C33         4.6470    5.5710    0.1810 ca        1 MOL      0.435938
     92 O14         5.8530    6.1550   -0.0850 oh        1 MOL     -0.603150
     93 H37         0.7130    1.2350   -0.0470 hn        1 MOL      0.173623
     94 H38        -0.4000    3.9410   -0.4950 h1        1 MOL      0.008212
     95 H39         1.0250    3.1800    2.1340 hc        1 MOL     -0.011765
     96 H40         0.1320    4.6680    1.6270 hc        1 MOL     -0.011765
     97 H41         1.3340    6.2860   -0.0050 ha        1 MOL      0.100270
     98 H42         3.1750    2.6960    1.3490 ha        1 MOL      0.100270
     99 H43         3.4840    7.3180   -0.4080 ha        1 MOL      0.163866
    100 H44         5.5300    3.6270    0.7060 ha        1 MOL      0.163866
    101 H45         6.6320    5.5970   -0.0950 ho        1 MOL      0.455063
    102 N10        -2.4590    3.1730    0.6660 n         1 MOL     -0.188522
    103 C34        -3.7890    2.5990    0.8650 c3        1 MOL     -0.078850
    104 C35        -4.3340    2.1190   -0.5200 c         1 MOL      0.528344
    105 O15        -4.8040    0.9900   -0.5420 o         1 MOL     -0.449001
    106 C36        -4.7700    3.6170    1.4910 c3        1 MOL      0.088402
    107 C37        -4.0990    4.3060    2.7300 c3        1 MOL     -0.094035
    108 C38        -6.1080    3.0820    1.9470 c3        1 MOL     -0.372512
    109 C39        -3.7340    3.3570    3.9640 c3        1 MOL     -0.362910
    110 H46        -2.4730    4.1520    0.4390 hn        1 MOL      0.261932
    111 H47        -3.8230    1.7540    1.5470 h1        1 MOL      0.160751
    112 H48        -4.9260    4.4180    0.7710 hc        1 MOL     -0.016866
    113 H49        -4.7370    5.0910    3.1160 hc        1 MOL      0.059258
    114 H50        -3.1640    4.7420    2.4010 hc        1 MOL      0.059258
    115 H51        -6.0610    2.5080    2.8640 hc        1 MOL      0.107967
    116 H52        -6.8030    3.9000    2.1150 hc        1 MOL      0.107967
    117 H53        -6.5110    2.4050    1.1930 hc        1 MOL      0.107967
    118 H54        -3.2750    3.9130    4.7720 hc        1 MOL      0.102429
    119 H55        -4.6260    2.9810    4.4740 hc        1 MOL      0.102429
    120 H56        -3.1840    2.4990    3.5950 hc        1 MOL      0.102429
    121 N11        -4.1350    2.8200   -1.6490 n         1 MOL     -0.424473
    122 C40        -4.4740    2.1480   -2.9400 c3        1 MOL     -0.099684
    123 C41        -5.9380    1.9340   -3.1370 c         1 MOL      0.500676
    124 O16        -6.3270    1.1240   -3.9790 o         1 MOL     -0.505814
    125 C42        -3.8450    2.8750   -4.1100 c3        1 MOL      0.261261
    126 O17        -4.3920    4.2150   -4.1990 oh        1 MOL     -0.600401
    127 H57        -3.6230    3.6830   -1.6310 hn        1 MOL      0.261770
    128 H58        -3.9960    1.1640   -3.0160 h1        1 MOL      0.135178
    129 H59        -3.9980    2.2570   -4.9860 h1        1 MOL      0.019018
    130 H60        -2.7590    2.8180   -3.9810 h1        1 MOL      0.019018
    131 H61        -3.7220    4.6270   -4.7490 ho        1 MOL      0.391655
    132 N12        -6.8500    2.5350   -2.3630 n         1 MOL     -0.298222
    133 C43        -8.3640    2.2580   -2.4560 c3        1 MOL      0.111336
    134 C44        -8.5870    0.7230   -2.1870 c         1 MOL      0.474922
    135 O18        -9.4860    0.1690   -2.8310 o         1 MOL     -0.493974
    136 C45        -9.0800    2.8470   -3.7230 c3        1 MOL     -0.348269
    137 H62        -6.5750    3.1500   -1.6210 hn        1 MOL      0.219808
    138 H63        -8.7110    2.7880   -1.5720 h1        1 MOL      0.046301
    139 H64        -8.9880    3.9310   -3.7680 hc        1 MOL      0.115639
    140 H65        -8.6060    2.5180   -4.6450 hc        1 MOL      0.115639
    141 H66       -10.1180    2.5100   -3.7270 hc        1 MOL      0.115639
    142 N13        -7.7370    0.0400   -1.3770 n         1 MOL     -0.419901
    143 C46        -7.9290   -1.3440   -0.9230 c3        1 MOL      0.099006
    144 C47        -7.3650   -1.5380    0.4740 c         1 MOL      0.593484
    145 O19        -6.9770   -0.5900    1.1550 o         1 MOL     -0.542827
    146 C48        -7.1380   -2.2980   -1.8510 c3        1 MOL     -0.344024
    147 H67        -6.9150    0.5100   -1.0340 hn        1 MOL      0.173780
    148 H68        -8.9900   -1.5820   -0.8260 h1        1 MOL      0.053428
    149 H69        -7.3500   -3.3330   -1.5940 hc        1 MOL      0.114083
    150 H70        -7.5540   -2.2110   -2.8510 hc        1 MOL      0.114083
    151 H71        -6.0980   -2.0100   -1.7300 hc        1 MOL      0.114083
    152 N14        -7.3100   -2.7940    0.9220 n         1 MOL     -0.523677
    153 C49        -6.9340   -3.2670    2.2760 c3        1 MOL      0.159613
    154 C50        -7.5980   -2.4770    3.4220 c         1 MOL      0.380996
    155 O20        -7.1300   -2.4930    4.5880 o         1 MOL     -0.530820
    156 C51        -5.4430   -3.5590    2.4490 c3        1 MOL      0.062147
    157 C52        -4.7910   -4.2100    1.2330 c3        1 MOL      0.293373
    158 C53        -3.3210   -4.5100    1.4690 c         1 MOL      0.503014
    159 O21        -2.3790   -3.6700    1.3150 o         1 MOL     -0.636809
    160 O22        -3.0620   -5.6550    1.8330 o         1 MOL     -0.636809
    161 H72        -7.6870   -3.4760    0.2770 hn        1 MOL      0.279031
    162 H73        -7.4300   -4.2300    2.4010 h1        1 MOL      0.039799
    163 H74        -5.1990   -4.1590    3.3270 hc        1 MOL     -0.033865
    164 H75        -4.9960   -2.5550    2.4350 hc        1 MOL     -0.033865
    165 H76        -4.9300   -3.5810    0.3560 hc        1 MOL     -0.114740
    166 H77        -5.2750   -5.1740    1.0610 hc        1 MOL     -0.114740
    167 N15        -8.7720   -1.8710    3.2700 n         1 MOL     -0.220430
    168 C54        -9.4380   -1.1170    4.3200 c3        1 MOL     -0.135841
    169 H78        -9.5690   -0.0840    3.9970 h1        1 MOL      0.087096
    170 H79       -10.4130   -1.5600    4.5230 h1        1 MOL      0.087096
    171 H80        -8.8320   -1.1390    5.2250 h1        1 MOL      0.087096
    172 H81        -9.2390   -2.0260    2.3930 hn        1 MOL      0.188709
    173 Ca1        -1.1500   -1.3730    1.6730 Ca        1 MOL      1.671615
    174 O23        -0.6130   -2.8240    3.8000 oh        1 MOL     -0.870951
    175 H82         0.0010   -2.9030    4.5380 ho        1 MOL      0.432555
    176 H83        -0.9180   -3.7130    3.6520 ho        1 MOL      0.432555
    177 O24         0.5740    0.0830    3.0350 oh        1 MOL     -0.870951
    178 H84         0.2530    0.8310    3.5430 ho        1 MOL      0.432555
    179 H85         1.3790   -0.1810    3.4910 ho        1 MOL      0.432555
    180 O25        -2.5670   -0.5900    3.9330 oh        1 MOL     -0.870951
    181 H86        -3.4900   -0.7510    4.1140 ho        1 MOL      0.432555
    182 H87        -2.1580   -0.5780    4.7940 ho        1 MOL      0.432555
    183 O26        -3.7310   -0.7880    1.1290 oh        1 MOL     -0.870951
    184 H88        -3.7590   -0.7270    0.1780 ho        1 MOL      0.432555
    185 H89        -4.5880   -0.4430    1.4180 ho        1 MOL      0.432555
@<TRIPOS>BOND
     1    1    2 1   
     2    1    4 1   
     3    1    5 1   
     4    1    6 1   
     5    2    3 2   
     6    2    7 1   
     7    7    8 1   
     8    7   15 1   
     9    8    9 1   
    10    8   11 1   
    11    8   16 1   
    12    9   10 2   
    13    9   19 1   
    14   11   12 1   
    15   11   17 1   
    16   11   18 1   
    17   12   13 1   
    18   12   14 1   
    19   19   20 1   
    20   19   28 1   
    21   20   21 1   
    22   20   23 1   
    23   20   29 1   
    24   21   22 2   
    25   21   41 1   
    26   23   24 1   
    27   23   30 1   
    28   23   31 1   
    29   24   25 1   
    30   24   32 1   
    31   24   33 1   
    32   25   26 1   
    33   25   34 1   
    34   25   35 1   
    35   26   27 1   
    36   26   36 1   
    37   26   37 1   
    38   27   38 1   
    39   27   39 1   
    40   27   40 1   
    41   41   42 1   
    42   41   49 1   
    43   42   43 1   
    44   42   45 1   
    45   42   50 1   
    46   43   44 2   
    47   43   53 1   
    48   45   46 1   
    49   45   51 1   
    50   45   52 1   
    51   46   47 1   
    52   46   48 1   
    53   53   54 1   
    54   53   57 1   
    55   54   55 1   
    56   54   58 1   
    57   54   59 1   
    58   55   56 2   
    59   55   60 1   
    60   60   61 1   
    61   60   68 1   
    62   61   62 1   
    63   61   64 1   
    64   61   69 1   
    65   62   63 2   
    66   62   74 1   
    67   64   65 1   
    68   64   70 1   
    69   64   71 1   
    70   65   66 1   
    71   65   67 2   
    72   66   72 1   
    73   66   73 1   
    74   74   75 1   
    75   74   78 1   
    76   75   76 1   
    77   75   79 1   
    78   75   80 1   
    79   76   77 2   
    80   76   81 1   
    81   81   82 1   
    82   81   93 1   
    83   82   83 1   
    84   82   85 1   
    85   82   94 1   
    86   83   84 2   
    87   83  102 1   
    88   85   86 1   
    89   85   95 1   
    90   85   96 1   
    91   86   87 ar  
    92   86   88 ar  
    93   87   89 ar  
    94   87   97 1   
    95   88   90 ar  
    96   88   98 1   
    97   89   91 ar  
    98   89   99 1   
    99   90   91 ar  
   100   90  100 1   
   101   91   92 1   
   102   92  101 1   
   103  102  103 1   
   104  102  110 1   
   105  103  104 1   
   106  103  106 1   
   107  103  111 1   
   108  104  105 2   
   109  104  121 1   
   110  106  107 1   
   111  106  108 1   
   112  106  112 1   
   113  107  109 1   
   114  107  113 1   
   115  107  114 1   
   116  108  115 1   
   117  108  116 1   
   118  108  117 1   
   119  109  118 1   
   120  109  119 1   
   121  109  120 1   
   122  121  122 1   
   123  121  127 1   
   124  122  123 1   
   125  122  125 1   
   126  122  128 1   
   127  123  124 2   
   128  123  132 1   
   129  125  126 1   
   130  125  129 1   
   131  125  130 1   
   132  126  131 1   
   133  132  133 1   
   134  132  137 1   
   135  133  134 1   
   136  133  136 1   
   137  133  138 1   
   138  134  135 2   
   139  134  142 1   
   140  136  139 1   
   141  136  140 1   
   142  136  141 1   
   143  142  143 1   
   144  142  147 1   
   145  143  144 1   
   146  143  146 1   
   147  143  148 1   
   148  144  145 2   
   149  144  152 1   
   150  146  149 1   
   151  146  150 1   
   152  146  151 1   
   153  152  153 1   
   154  152  161 1   
   155  153  154 1   
   156  153  156 1   
   157  153  162 1   
   158  154  155 2   
   159  154  167 1   
   160  156  157 1   
   161  156  163 1   
   162  156  164 1   
   163  157  158 1   
   164  157  165 1   
   165  157  166 1   
   166  158  159 1   
   167  158  160 1   
   168  167  168 1   
   169  167  172 1   
   170  168  169 1   
   171  168  170 1   
   172  168  171 1   
   173  174  175 1   
   174  174  176 1   
   175  177  178 1   
   176  177  179 1   
   177  180  181 1   
   178  180  182 1   
   179  183  184 1   
   180  183  185 1   
@<TRIPOS>SUBSTRUCTURE
     1 MOL         1 TEMP              0 ****  ****    0 ROOT
