@<TRIPOS>MOLECULE
MOL
  194   186     1     0     0
SMALL
resp


@<TRIPOS>ATOM
      1 C1          0.9280    0.4480   -3.9340 c3        1 MOL     -0.560485
      2 C2          2.1580    0.4360   -2.9120 c         1 MOL      0.725535
      3 O1          2.1190   -0.3220   -1.9420 o         1 MOL     -0.650785
      4 H1          0.0570    0.8870   -3.4490 hc        1 MOL      0.154090
      5 H2          1.1900    1.0380   -4.8130 hc        1 MOL      0.154090
      6 H3          0.6970   -0.5740   -4.2380 hc        1 MOL      0.154090
      7 N1          3.1960    1.2200   -3.2110 n         1 MOL     -0.427319
      8 C3          4.5700    0.9670   -2.6660 c3        1 MOL     -0.101713
      9 C4          4.9460    2.1360   -1.6960 c         1 MOL      0.320927
     10 O2          6.1580    2.2950   -1.3380 o         1 MOL     -0.458609
     11 C5          5.6000    0.7110   -3.7220 c3        1 MOL     -0.074719
     12 C6          5.7960    1.7640   -4.8000 c         1 MOL      0.665681
     13 O3          5.0790    2.8440   -4.8820 o         1 MOL     -0.689968
     14 O4          6.7290    1.5880   -5.5890 o         1 MOL     -0.689968
     15 H4          3.0970    1.7830   -4.0370 hn        1 MOL      0.220743
     16 H5          4.6000    0.1100   -1.9930 h1        1 MOL      0.207462
     17 H6          5.4640   -0.2560   -4.2190 hc        1 MOL      0.044593
     18 H7          6.5560    0.5900   -3.2240 hc        1 MOL      0.044593
     19 N2          4.0420    3.0450   -1.3040 n         1 MOL     -0.192896
     20 C7          4.3650    4.2560   -0.6350 c3        1 MOL     -0.088433
     21 C8          5.0310    4.0420    0.7420 c         1 MOL      0.467863
     22 O5          5.6000    4.9550    1.2890 o         1 MOL     -0.544478
     23 C9          4.9840    5.2740   -1.5820 c3        1 MOL      0.209357
     24 C10         4.5200    6.7290   -1.4190 c3        1 MOL     -0.132018
     25 C11         4.8750    7.6100   -2.6000 c3        1 MOL     -0.076846
     26 C12         4.3100    9.0110   -2.4350 c3        1 MOL      0.166562
     27 N3          4.6910    9.9170   -3.4990 n4        1 MOL     -0.376904
     28 H8          3.0700    2.8420   -1.5350 hn        1 MOL      0.192808
     29 H9          3.3540    4.6240   -0.4660 h1        1 MOL      0.089726
     30 H10         4.8390    4.9950   -2.6280 hc        1 MOL      0.015804
     31 H11         6.0750    5.2710   -1.5450 hc        1 MOL      0.015804
     32 H12         4.8930    7.1760   -0.4930 hc        1 MOL      0.029012
     33 H13         3.4280    6.7570   -1.3780 hc        1 MOL      0.029012
     34 H14         4.4750    7.1600   -3.4990 hc        1 MOL      0.050084
     35 H15         5.9630    7.6430   -2.6610 hc        1 MOL      0.050084
     36 H16         4.5570    9.4540   -1.4650 hx        1 MOL      0.049423
     37 H17         3.2290    9.0810   -2.3550 hx        1 MOL      0.049423
     38 H18         4.4850   10.8620   -3.2090 hn        1 MOL      0.289952
     39 H19         5.6470    9.7700   -3.7770 hn        1 MOL      0.289952
     40 H20         4.1320    9.8530   -4.3400 hn        1 MOL      0.289952
     41 N4          5.0450    2.8560    1.3140 n         1 MOL     -0.255469
     42 C13         5.8050    2.4480    2.5630 c3        1 MOL      0.049146
     43 C14         6.1710    0.9170    2.3980 c         1 MOL      0.583400
     44 O6          5.4490    0.1750    1.7760 o         1 MOL     -0.464738
     45 C15         4.8160    2.6340    3.7370 c3        1 MOL     -0.491336
     46 C16         3.5030    1.8450    3.5840 c         1 MOL      0.908912
     47 O7          3.3480    0.8390    4.2760 o         1 MOL     -0.783360
     48 O8          2.5730    2.2260    2.7850 o         1 MOL     -0.783360
     49 H21         4.6470    2.1100    0.7700 hn        1 MOL      0.106102
     50 H22         6.7120    3.0440    2.6410 h1        1 MOL      0.107805
     51 H23         4.5490    3.6850    3.8180 hc        1 MOL      0.131724
     52 H24         5.2450    2.3570    4.7030 hc        1 MOL      0.131724
     53 N5          7.3190    0.4370    2.8780 n         1 MOL     -0.491760
     54 C17         7.7330   -0.9900    2.6570 c3        1 MOL      0.103396
     55 C18         8.5580   -1.1300    1.3810 c         1 MOL      0.502795
     56 O9          9.5860   -0.5110    1.2610 o         1 MOL     -0.528103
     57 H25         7.9980    1.0200    3.3460 hn        1 MOL      0.309320
     58 H26         6.9110   -1.7030    2.6640 h1        1 MOL      0.029884
     59 H27         8.4190   -1.2940    3.4520 h1        1 MOL      0.029884
     60 N6          8.0840   -1.9080    0.3810 n         1 MOL     -0.420681
     61 C19         6.8520   -2.7820    0.2560 c3        1 MOL      0.029326
     62 C20         6.2790   -2.7800   -1.1810 c         1 MOL      0.639004
     63 O10         7.0330   -2.4660   -2.0720 o         1 MOL     -0.538109
     64 C21         7.2750   -4.2580    0.5990 c3        1 MOL     -0.354021
     65 C22         7.7220   -4.3960    2.0110 c         1 MOL      0.714361
     66 N7          9.0370   -4.2990    2.3560 n         1 MOL     -0.814277
     67 O11         6.9320   -4.6460    2.8950 o         1 MOL     -0.562948
     68 H28         8.7220   -1.9960   -0.4010 hn        1 MOL      0.296654
     69 H29         6.0860   -2.4600    0.9570 h1        1 MOL      0.100985
     70 H30         7.9760   -4.7130   -0.0930 hc        1 MOL      0.118010
     71 H31         6.4120   -4.9020    0.4470 hc        1 MOL      0.118010
     72 H32         9.7690   -4.0910    1.7010 hn        1 MOL      0.364771
     73 H33         9.3080   -4.4440    3.3240 hn        1 MOL      0.364771
     74 N8          4.9800   -2.8520   -1.4560 n         1 MOL     -0.654845
     75 C23         3.9280   -2.6440   -0.4780 c3        1 MOL      0.181796
     76 C24         2.6430   -3.3940   -0.9740 c         1 MOL      0.615457
     77 O12         2.7730   -4.4150   -1.6320 o         1 MOL     -0.571328
     78 H34         4.6970   -2.9000   -2.4230 hn        1 MOL      0.384560
     79 H35         3.6950   -1.6000   -0.6640 h1        1 MOL     -0.018823
     80 H36         4.0640   -2.9900    0.5470 h1        1 MOL     -0.018823
     81 N9          1.5250   -3.0030   -0.4930 n         1 MOL     -0.314823
     82 C25         0.2950   -3.6130   -0.9980 c3        1 MOL     -0.054493
     83 C26        -0.9590   -2.6690   -1.1320 c         1 MOL      0.780034
     84 O13        -0.8330   -1.4170   -1.0180 o         1 MOL     -0.596568
     85 C27        -0.0510   -4.8460   -0.1470 c3        1 MOL     -0.040880
     86 C28        -0.8800   -5.9710   -0.9050 ca        1 MOL      0.026623
     87 C29        -2.0080   -6.4670   -0.1880 ca        1 MOL     -0.178551
     88 C30        -0.5780   -6.3200   -2.2280 ca        1 MOL     -0.178551
     89 C31        -2.8210   -7.4360   -0.7660 ca        1 MOL     -0.195283
     90 C32        -1.4710   -7.2290   -2.8530 ca        1 MOL     -0.195283
     91 C33        -2.5090   -7.8480   -2.0810 ca        1 MOL      0.276688
     92 O14        -3.2710   -8.8030   -2.6070 oh        1 MOL     -0.456105
     93 H37         1.5050   -2.3290    0.2530 hn        1 MOL      0.172644
     94 H38         0.4370   -3.9810   -2.0140 h1        1 MOL      0.079832
     95 H39        -0.4940   -4.5310    0.7970 hc        1 MOL      0.021392
     96 H40         0.8880   -5.3500    0.0940 hc        1 MOL      0.021392
     97 H41        -2.2350   -6.0200    0.7660 ha        1 MOL      0.154290
     98 H42         0.2300   -5.8850   -2.7960 ha        1 MOL      0.154290
     99 H43        -3.6860   -7.9710   -0.3940 ha        1 MOL      0.138173
    100 H44        -1.3480   -7.5350   -3.8830 ha        1 MOL      0.138173
    101 H45        -3.0580   -8.8730   -3.5350 ho        1 MOL      0.360569
    102 N10        -2.1200   -3.2500   -1.6200 n         1 MOL     -0.650881
    103 C34        -3.3690   -2.5370   -1.7190 c3        1 MOL      0.050348
    104 C35        -4.2720   -2.8150   -0.5250 c         1 MOL      0.478780
    105 O15        -3.9590   -3.8330    0.2120 o         1 MOL     -0.520322
    106 C36        -4.0540   -2.8620   -3.0660 c3        1 MOL      0.211576
    107 C37        -4.2830   -4.3700   -3.2360 c3        1 MOL     -0.087808
    108 C38        -5.2990   -2.0460   -3.4680 c3        1 MOL     -0.420837
    109 C39        -4.1340   -4.7750   -4.6700 c3        1 MOL     -0.077515
    110 H46        -2.1330   -4.2400   -1.7800 hn        1 MOL      0.316685
    111 H47        -3.1610   -1.4710   -1.7320 h1        1 MOL      0.089835
    112 H48        -3.2850   -2.5940   -3.7920 hc        1 MOL      0.018532
    113 H49        -5.3440   -4.5240   -3.0240 hc        1 MOL      0.037530
    114 H50        -3.6060   -4.8870   -2.5660 hc        1 MOL      0.037530
    115 H51        -6.2160   -2.5170   -3.1120 hc        1 MOL      0.121340
    116 H52        -5.1770   -1.0430   -3.0750 hc        1 MOL      0.121340
    117 H53        -5.4030   -2.0460   -4.5550 hc        1 MOL      0.121340
    118 H54        -3.9820   -5.8510   -4.7050 hc        1 MOL      0.021259
    119 H55        -4.9780   -4.5510   -5.3190 hc        1 MOL      0.021259
    120 H56        -3.2100   -4.2920   -4.9990 hc        1 MOL      0.021259
    121 N11        -5.3220   -2.0160   -0.3120 n         1 MOL     -0.545833
    122 C40        -6.2170   -1.9330    0.8090 c3        1 MOL      0.312177
    123 C41        -5.9880   -0.7310    1.7300 c         1 MOL      0.585706
    124 O16        -5.3960    0.3150    1.3800 o         1 MOL     -0.541279
    125 C42        -7.7350   -1.9790    0.4310 c3        1 MOL     -0.230547
    126 O17        -8.0770   -0.9370   -0.4840 oh        1 MOL     -0.475481
    127 H57        -5.5650   -1.4450   -1.1070 hn        1 MOL      0.306037
    128 H58        -5.9260   -2.8110    1.3870 h1        1 MOL     -0.012962
    129 H59        -8.3170   -1.9790    1.3490 h1        1 MOL      0.117844
    130 H60        -7.8210   -2.9200   -0.1170 h1        1 MOL      0.117844
    131 H61        -9.0250   -0.8540   -0.4370 ho        1 MOL      0.409432
    132 N12        -6.5020   -0.8400    2.9280 n         1 MOL     -0.617268
    133 C43        -6.6270    0.2900    3.8740 c3        1 MOL      0.407278
    134 C44        -7.3510    1.5310    3.2110 c         1 MOL      0.384046
    135 O18        -6.8160    2.6260    3.1650 o         1 MOL     -0.438418
    136 C45        -5.3270    0.5400    4.7030 c3        1 MOL     -0.437470
    137 H62        -7.0000   -1.6680    3.2300 hn        1 MOL      0.287194
    138 H63        -7.3180   -0.1070    4.6180 h1        1 MOL     -0.023438
    139 H64        -4.6740   -0.3350    4.7140 hc        1 MOL      0.119243
    140 H65        -4.7450    1.3320    4.2340 hc        1 MOL      0.119243
    141 H66        -5.7320    0.9440    5.6300 hc        1 MOL      0.119243
    142 N13        -8.5500    1.2220    2.7620 n         1 MOL     -0.530477
    143 C46        -9.4670    2.1930    2.1660 c3        1 MOL      0.040024
    144 C47        -8.9990    2.9370    0.9000 c         1 MOL      0.378664
    145 O19        -9.6850    3.7430    0.3400 o         1 MOL     -0.488908
    146 C48        -9.9220    3.1120    3.3550 c3        1 MOL     -0.099834
    147 H67        -8.9300    0.3180    3.0040 hn        1 MOL      0.323518
    148 H68       -10.3360    1.6090    1.8940 h1        1 MOL      0.075444
    149 H69       -10.1610    2.5550    4.2510 hc        1 MOL      0.054134
    150 H70        -9.1120    3.7890    3.6190 hc        1 MOL      0.054134
    151 H71       -10.8040    3.7190    3.1450 hc        1 MOL      0.054134
    152 N14        -7.8080    2.6490    0.4010 n         1 MOL     -0.110465
    153 C49        -7.1750    3.2280   -0.7920 c3        1 MOL     -0.030730
    154 C50        -7.9530    2.9540   -2.1010 c         1 MOL      0.428080
    155 O20        -8.3200    3.9120   -2.7770 o         1 MOL     -0.480065
    156 C51        -5.7250    2.8260   -0.8200 c3        1 MOL      0.064366
    157 C52        -4.8800    3.5280   -1.8730 c3        1 MOL     -0.237912
    158 C53        -4.6610    4.9920   -1.5780 c         1 MOL      0.766673
    159 O21        -3.4620    5.3600   -1.4430 o         1 MOL     -0.684495
    160 O22        -5.5770    5.8340   -1.5260 o         1 MOL     -0.684495
    161 H72        -7.1970    2.0830    0.9680 hn        1 MOL      0.099204
    162 H73        -7.2240    4.3060   -0.6330 h1        1 MOL      0.137387
    163 H74        -5.7760    1.7620   -1.0470 hc        1 MOL      0.023797
    164 H75        -5.1890    3.0270    0.1080 hc        1 MOL      0.023797
    165 H76        -5.2850    3.3780   -2.8760 hc        1 MOL      0.012532
    166 H77        -3.8850    3.0770   -1.8390 hc        1 MOL      0.012532
    167 N15        -8.3220    1.7160   -2.3970 n         1 MOL     -0.207104
    168 C54        -9.3870    1.4200   -3.4380 c3        1 MOL     -0.183902
    169 H78       -10.1130    2.2330   -3.4570 h1        1 MOL      0.092223
    170 H79        -8.9210    1.3270   -4.4190 h1        1 MOL      0.092223
    171 H80        -9.8930    0.4880   -3.1850 h1        1 MOL      0.092223
    172 H81        -8.1160    0.9810   -1.7440 hn        1 MOL      0.095359
    173 Ca1         0.9200    0.2020    3.2900 Ca        1 MOL      1.762100
    174 O23        -1.4980   -0.5920    3.8420 oh        1 MOL     -0.820305
    175 H82        -1.8830   -1.3040    3.3330 ho        1 MOL      0.409234
    176 H83        -2.0630   -0.5210    4.6190 ho        1 MOL      0.409234
    177 O24         1.3710   -1.2820    5.8620 oh        1 MOL     -0.820305
    178 H84         1.3830   -0.9840    6.7730 ho        1 MOL      0.409234
    179 H85         1.0500   -2.1810    5.9150 ho        1 MOL      0.409234
    180 O25         0.2450   -2.4220    2.5370 oh        1 MOL     -0.820305
    181 H86         0.6160   -3.1050    3.0950 ho        1 MOL      0.409234
    182 H87        -0.6650   -2.7000    2.3880 ho        1 MOL      0.409234
    183 O26         0.2660    1.4490    5.6010 oh        1 MOL     -0.820305
    184 H88        -0.1190    1.2200    6.4570 ho        1 MOL      0.409234
    185 H89         0.6940    2.2910    5.7510 ho        1 MOL      0.409234
    186 O27         0.7390    0.0950    0.5250 oh        1 MOL     -0.820305
    187 H90         0.2430   -0.5010   -0.0430 ho        1 MOL      0.409234
    188 H91         1.0230    0.7990   -0.0580 ho        1 MOL      0.409234
    189 O28        -0.7180    2.3630    2.9540 oh        1 MOL     -0.820305
    190 H92        -0.8440    3.3060    3.0590 ho        1 MOL      0.409234
    191 H93        -1.3980    2.1000    2.3320 ho        1 MOL      0.409234
    192 O29         2.9360   -1.2500    2.2580 oh        1 MOL     -0.820305
    193 H94         3.5450   -0.6440    1.8430 ho        1 MOL      0.409234
    194 H95         3.3270   -2.1150    2.1010 ho        1 MOL      0.409234
@<TRIPOS>BOND
     1    1    2 1   
     2    1    4 1   
     3    1    5 1   
     4    1    6 1   
     5    2    3 2   
     6    2    7 1   
     7    7    8 1   
     8    7   15 1   
     9    8    9 1   
    10    8   11 1   
    11    8   16 1   
    12    9   10 2   
    13    9   19 1   
    14   11   12 1   
    15   11   17 1   
    16   11   18 1   
    17   12   13 1   
    18   12   14 1   
    19   19   20 1   
    20   19   28 1   
    21   20   21 1   
    22   20   23 1   
    23   20   29 1   
    24   21   22 2   
    25   21   41 1   
    26   23   24 1   
    27   23   30 1   
    28   23   31 1   
    29   24   25 1   
    30   24   32 1   
    31   24   33 1   
    32   25   26 1   
    33   25   34 1   
    34   25   35 1   
    35   26   27 1   
    36   26   36 1   
    37   26   37 1   
    38   27   38 1   
    39   27   39 1   
    40   27   40 1   
    41   41   42 1   
    42   41   49 1   
    43   42   43 1   
    44   42   45 1   
    45   42   50 1   
    46   43   44 2   
    47   43   53 1   
    48   45   46 1   
    49   45   51 1   
    50   45   52 1   
    51   46   47 1   
    52   46   48 1   
    53   53   54 1   
    54   53   57 1   
    55   54   55 1   
    56   54   58 1   
    57   54   59 1   
    58   55   56 2   
    59   55   60 1   
    60   60   61 1   
    61   60   68 1   
    62   61   62 1   
    63   61   64 1   
    64   61   69 1   
    65   62   63 2   
    66   62   74 1   
    67   64   65 1   
    68   64   70 1   
    69   64   71 1   
    70   65   66 1   
    71   65   67 2   
    72   66   72 1   
    73   66   73 1   
    74   74   75 1   
    75   74   78 1   
    76   75   76 1   
    77   75   79 1   
    78   75   80 1   
    79   76   77 2   
    80   76   81 1   
    81   81   82 1   
    82   81   93 1   
    83   82   83 1   
    84   82   85 1   
    85   82   94 1   
    86   83   84 2   
    87   83  102 1   
    88   85   86 1   
    89   85   95 1   
    90   85   96 1   
    91   86   87 ar  
    92   86   88 ar  
    93   87   89 ar  
    94   87   97 1   
    95   88   90 ar  
    96   88   98 1   
    97   89   91 ar  
    98   89   99 1   
    99   90   91 ar  
   100   90  100 1   
   101   91   92 1   
   102   92  101 1   
   103  102  103 1   
   104  102  110 1   
   105  103  104 1   
   106  103  106 1   
   107  103  111 1   
   108  104  105 2   
   109  104  121 1   
   110  106  107 1   
   111  106  108 1   
   112  106  112 1   
   113  107  109 1   
   114  107  113 1   
   115  107  114 1   
   116  108  115 1   
   117  108  116 1   
   118  108  117 1   
   119  109  118 1   
   120  109  119 1   
   121  109  120 1   
   122  121  122 1   
   123  121  127 1   
   124  122  123 1   
   125  122  125 1   
   126  122  128 1   
   127  123  124 2   
   128  123  132 1   
   129  125  126 1   
   130  125  129 1   
   131  125  130 1   
   132  126  131 1   
   133  132  133 1   
   134  132  137 1   
   135  133  134 1   
   136  133  136 1   
   137  133  138 1   
   138  134  135 2   
   139  134  142 1   
   140  136  139 1   
   141  136  140 1   
   142  136  141 1   
   143  142  143 1   
   144  142  147 1   
   145  143  144 1   
   146  143  146 1   
   147  143  148 1   
   148  144  145 2   
   149  144  152 1   
   150  146  149 1   
   151  146  150 1   
   152  146  151 1   
   153  152  153 1   
   154  152  161 1   
   155  153  154 1   
   156  153  156 1   
   157  153  162 1   
   158  154  155 2   
   159  154  167 1   
   160  156  157 1   
   161  156  163 1   
   162  156  164 1   
   163  157  158 1   
   164  157  165 1   
   165  157  166 1   
   166  158  159 1   
   167  158  160 1   
   168  167  168 1   
   169  167  172 1   
   170  168  169 1   
   171  168  170 1   
   172  168  171 1   
   173  174  175 1   
   174  174  176 1   
   175  177  178 1   
   176  177  179 1   
   177  180  181 1   
   178  180  182 1   
   179  183  184 1   
   180  183  185 1   
   181  186  187 1   
   182  186  188 1   
   183  189  190 1   
   184  189  191 1   
   185  192  193 1   
   186  192  194 1   
@<TRIPOS>SUBSTRUCTURE
     1 MOL         1 TEMP              0 ****  ****    0 ROOT
