@<TRIPOS>MOLECULE
MOL
  195   189     1     0     0
SMALL
resp


@<TRIPOS>ATOM
      1 C1         -2.1020    3.0690   -0.3410 c3        1 MOL     -0.170383
      2 C2         -0.8080    3.5850    0.3780 c         1 MOL      0.608435
      3 O1         -0.1030    2.7940    1.0240 o         1 MOL     -0.526126
      4 H1         -2.9740    3.5770    0.0710 hc        1 MOL      0.014668
      5 H2         -2.0330    3.2760   -1.4090 hc        1 MOL      0.014668
      6 H3         -2.2010    1.9950   -0.1850 hc        1 MOL      0.014668
      7 N1         -0.6310    4.9230    0.5380 n         1 MOL     -0.522231
      8 C3          0.5650    5.6470    0.9050 c3        1 MOL      0.174588
      9 C4          1.7040    5.3830   -0.1020 c         1 MOL      0.380568
     10 O2          1.8420    4.3330   -0.7050 o         1 MOL     -0.509305
     11 C5          0.8720    5.2900    2.3950 c3        1 MOL     -0.210569
     12 C6          1.9780    6.1900    2.9380 c         1 MOL      0.595605
     13 O3          2.4950    7.1410    2.2160 o         1 MOL     -0.622118
     14 O4          2.3180    6.0470    4.1640 o         1 MOL     -0.622118
     15 H4         -1.3030    5.4690    0.0150 hn        1 MOL      0.251278
     16 H5          0.2810    6.6890    0.8170 h1        1 MOL      0.030500
     17 H6          1.2300    4.2680    2.4190 hc        1 MOL      0.081745
     18 H7         -0.0220    5.4400    3.0100 hc        1 MOL      0.081745
     19 N2          2.4710    6.4210   -0.3870 n         1 MOL     -0.213506
     20 C7          3.4910    6.4950   -1.4320 c3        1 MOL     -0.009552
     21 C8          4.7050    7.2960   -0.8630 c         1 MOL      0.434560
     22 O5          4.5550    8.3740   -0.3060 o         1 MOL     -0.485678
     23 C9          2.8770    7.1370   -2.7840 c3        1 MOL      0.023515
     24 C10         2.2750    8.5580   -2.5070 c3        1 MOL      0.280665
     25 C11         1.8060    6.1890   -3.3930 c3        1 MOL     -0.322104
     26 C12         1.6660    9.2880   -3.6090 c3        1 MOL     -0.156909
     27 H8          2.3600    7.2210    0.2220 hn        1 MOL      0.179706
     28 H9          3.8200    5.4800   -1.6430 h1        1 MOL      0.049433
     29 H10         3.6880    7.3350   -3.4910 hc        1 MOL      0.013539
     30 H11         3.0100    9.2350   -2.0690 hc        1 MOL     -0.048761
     31 H12         1.5100    8.4210   -1.7350 hc        1 MOL     -0.048761
     32 H13         1.4500    6.4790   -4.3870 hc        1 MOL      0.079019
     33 H14         2.1840    5.1690   -3.4200 hc        1 MOL      0.079019
     34 H15         0.9380    5.9940   -2.7510 hc        1 MOL      0.079019
     35 H16         0.7910    8.8560   -4.0950 hc        1 MOL      0.002370
     36 H17         1.2920   10.2140   -3.1700 hc        1 MOL      0.002370
     37 H18         2.4340    9.4420   -4.3660 hc        1 MOL      0.002370
     38 N3          5.9320    6.6350   -0.9490 n         1 MOL     -0.533860
     39 C13         6.2730    5.2530   -1.5600 c3        1 MOL      0.257736
     40 C14         5.9830    4.0890   -0.5910 c         1 MOL      0.520905
     41 O6          6.4060    2.9160   -0.8220 o         1 MOL     -0.560968
     42 C15         7.7220    5.1970   -2.0170 c3        1 MOL     -0.177693
     43 C16         8.9160    5.4320   -1.0130 c         1 MOL      0.755099
     44 O7          8.6170    5.5910    0.1610 o         1 MOL     -0.644713
     45 O8         10.1180    5.3440   -1.3280 o         1 MOL     -0.644713
     46 H19         6.6570    7.0510   -0.3830 hn        1 MOL      0.302176
     47 H20         5.6160    5.0400   -2.4080 h1        1 MOL      0.003744
     48 H21         7.8210    6.0320   -2.7090 hc        1 MOL     -0.000022
     49 H22         7.8550    4.3180   -2.6400 hc        1 MOL     -0.000022
     50 N4          5.2540    4.3670    0.4980 n         1 MOL     -0.423823
     51 C17         4.6350    3.2910    1.2760 c3        1 MOL     -0.087089
     52 C18         5.5690    2.2610    1.9360 c         1 MOL      0.576502
     53 O9          6.6660    2.6290    2.2270 o         1 MOL     -0.484184
     54 H23         4.9900    5.3340    0.6640 hn        1 MOL      0.340813
     55 H24         3.9400    2.7540    0.6160 h1        1 MOL      0.101453
     56 H25         4.0770    3.7920    2.0690 h1        1 MOL      0.101453
     57 N5          5.0970    1.0300    2.1390 n         1 MOL     -0.495668
     58 C19         5.7520   -0.0120    2.9540 c3        1 MOL      0.037494
     59 C20         6.7290   -0.9090    2.1510 c         1 MOL      0.473673
     60 O10         7.4200   -1.6860    2.7650 o         1 MOL     -0.556311
     61 C21         4.7210   -0.8650    3.6650 c3        1 MOL     -0.128100
     62 C22         3.6820   -1.5360    2.7540 c         1 MOL      0.713172
     63 O11         2.4750   -1.5770    3.0290 o         1 MOL     -0.640141
     64 O12         4.1700   -2.2130    1.8100 o         1 MOL     -0.640141
     65 H26         4.1740    0.8270    1.7610 hn        1 MOL      0.258485
     66 H27         6.4820    0.4250    3.6390 h1        1 MOL      0.076552
     67 H28         4.2290   -0.3250    4.4790 hc        1 MOL      0.023503
     68 H29         5.2920   -1.6750    4.1270 hc        1 MOL      0.023503
     69 N6          6.7290   -0.7830    0.8230 n         1 MOL     -0.090478
     70 C23         7.7700   -1.2570   -0.0120 c3        1 MOL     -0.430445
     71 C24         7.7270   -2.7500   -0.2910 c         1 MOL      0.586269
     72 O13         8.4180   -3.2380   -1.2110 o         1 MOL     -0.613879
     73 H30         6.0300   -0.2540    0.3220 hn        1 MOL      0.224470
     74 H31         8.6770   -0.9920    0.5310 h1        1 MOL      0.179789
     75 H32         7.6490   -0.7470   -0.9730 h1        1 MOL      0.179789
     76 N7          6.8940   -3.5090    0.4520 n         1 MOL      0.001819
     77 C25         6.7250   -5.0350    0.5610 c3        1 MOL      0.113549
     78 C26         6.0770   -5.6430   -0.7550 c         1 MOL      0.306412
     79 O14         6.2460   -6.8620   -0.9820 o         1 MOL     -0.487068
     80 C27         8.0680   -5.6490    0.9040 c3        1 MOL     -0.058235
     81 C28         8.6260   -5.2690    2.3060 c3        1 MOL     -0.007203
     82 C29         7.5460   -5.4690    3.3870 c         1 MOL      0.401718
     83 N8          6.7740   -4.4410    3.7590 n         1 MOL     -0.586303
     84 O15         7.3880   -6.5800    3.8490 o         1 MOL     -0.542455
     85 H33         6.3330   -3.0670    1.1590 hn        1 MOL     -0.135048
     86 H34         5.9390   -5.2450    1.2890 h1        1 MOL      0.158605
     87 H35         8.8890   -5.3890    0.2290 hc        1 MOL      0.038277
     88 H36         7.9350   -6.7250    1.0290 hc        1 MOL      0.038277
     89 H37         8.9820   -4.2400    2.3480 hc        1 MOL      0.006251
     90 H38         9.5030   -5.8940    2.5030 hc        1 MOL      0.006251
     91 H39         7.1060   -3.5460    3.4330 hn        1 MOL      0.323801
     92 H40         6.2230   -4.5620    4.6040 hn        1 MOL      0.323801
     93 N9          5.2810   -4.8080   -1.4890 n         1 MOL     -0.336739
     94 C30         4.6770   -5.1730   -2.8020 c3        1 MOL     -0.054776
     95 C31         3.1730   -4.7780   -3.0370 c         1 MOL      0.714683
     96 O16         2.6200   -5.1890   -4.0220 o         1 MOL     -0.603872
     97 C32         5.5700   -4.5780   -4.0070 c3        1 MOL      0.308133
     98 C33         5.5860   -3.0980   -4.1350 c3        1 MOL     -0.236850
     99 C34         6.9910   -5.1260   -4.0730 c3        1 MOL     -0.236850
    100 H41         5.1240   -3.8780   -1.1280 hn        1 MOL      0.233658
    101 H42         4.7240   -6.2540   -2.9520 h1        1 MOL      0.082005
    102 H43         5.0500   -4.8960   -4.9120 hc        1 MOL     -0.075375
    103 H44         6.1880   -2.7170   -3.3070 hc        1 MOL      0.049018
    104 H45         5.9330   -2.6840   -5.0780 hc        1 MOL      0.049018
    105 H46         4.5700   -2.7330   -3.9530 hc        1 MOL      0.049018
    106 H47         6.9260   -6.2120   -4.0130 hc        1 MOL      0.049018
    107 H48         7.5360   -4.8920   -4.9800 hc        1 MOL      0.049018
    108 H49         7.6150   -4.8210   -3.2290 hc        1 MOL      0.049018
    109 N10         2.5300   -4.0820   -2.1200 n         1 MOL     -0.624423
    110 C35         1.1810   -3.5230   -2.2510 c3        1 MOL      0.387290
    111 C36         0.3560   -3.6540   -0.9280 c         1 MOL      0.405149
    112 O17         0.9190   -3.6930    0.1760 o         1 MOL     -0.494052
    113 C37         1.4460   -2.0660   -2.6980 c3        1 MOL     -0.374348
    114 C38         0.1830   -1.2310   -2.9700 c         1 MOL      0.645579
    115 N11         0.1680   -0.0670   -2.4160 n         1 MOL     -0.751173
    116 O18        -0.8470   -1.5850   -3.4410 o         1 MOL     -0.575345
    117 H50         3.0800   -3.5400   -1.4690 hn        1 MOL      0.268131
    118 H51         0.6220   -4.0530   -3.0170 h1        1 MOL      0.021782
    119 H52         2.0900   -2.0140   -3.5770 hc        1 MOL      0.109430
    120 H53         1.9640   -1.6440   -1.8350 hc        1 MOL      0.109430
    121 H54         0.9720    0.3000   -1.9220 hn        1 MOL      0.364423
    122 H55        -0.6680    0.4560   -2.6040 hn        1 MOL      0.364423
    123 N12        -0.9320   -3.5210   -1.0060 n         1 MOL     -0.434959
    124 C39        -1.8120   -3.2140    0.1230 c3        1 MOL      0.308193
    125 C40        -3.2470   -3.5530   -0.2210 c         1 MOL      0.286870
    126 O19        -3.6500   -3.3940   -1.3760 o         1 MOL     -0.526171
    127 C41        -1.6910   -1.7580    0.4790 c3        1 MOL     -0.290018
    128 C42        -2.5390   -1.1520    1.6180 ca        1 MOL      0.012984
    129 C43        -3.4770   -0.0970    1.3970 ca        1 MOL     -0.132593
    130 C44        -2.5200   -1.8290    2.8450 ca        1 MOL     -0.132593
    131 C45        -4.3830    0.2490    2.4180 ca        1 MOL     -0.198298
    132 C46        -3.4450   -1.4650    3.8510 ca        1 MOL     -0.198298
    133 C47        -4.3590   -0.4060    3.6530 ca        1 MOL      0.282117
    134 O20        -5.1990   -0.0280    4.6050 oh        1 MOL     -0.515208
    135 H56        -1.3030   -3.3230   -1.9220 hn        1 MOL      0.245414
    136 H57        -1.4820   -3.9010    0.9020 h1        1 MOL      0.027254
    137 H58        -1.7420   -1.1280   -0.4090 hc        1 MOL      0.141786
    138 H59        -0.6460   -1.7160    0.7840 hc        1 MOL      0.141786
    139 H60        -3.5640    0.3190    0.4110 ha        1 MOL      0.157176
    140 H61        -1.8130   -2.6370    3.0300 ha        1 MOL      0.157176
    141 H62        -5.0540    1.0660    2.1790 ha        1 MOL      0.118513
    142 H63        -3.3260   -1.8580    4.8520 ha        1 MOL      0.118513
    143 H64        -5.6870    0.7960    4.5350 ho        1 MOL      0.388028
    144 N13        -3.9980   -4.1680    0.6590 n         1 MOL     -0.243004
    145 C48        -5.4500   -4.3980    0.4700 c3        1 MOL      0.208597
    146 C49        -6.1740   -3.4330    1.4720 c         1 MOL      0.299789
    147 O21        -6.3530   -3.7850    2.6610 o         1 MOL     -0.529734
    148 C50        -5.7870   -5.8190    0.7560 c3        1 MOL     -0.190929
    149 C51        -5.3410   -6.5700   -0.4330 c3        1 MOL     -0.050482
    150 C52        -5.9480   -7.9760   -0.3260 c         1 MOL      0.643237
    151 O22        -5.5100   -8.8450    0.4430 o         1 MOL     -0.637236
    152 O23        -6.9750   -8.1520   -1.0180 o         1 MOL     -0.637236
    153 H65        -3.6080   -4.5430    1.5090 hn        1 MOL      0.236544
    154 H66        -5.5900   -4.1020   -0.5710 h1        1 MOL      0.139388
    155 H67        -6.8750   -5.9310    0.7240 hc        1 MOL      0.082401
    156 H68        -5.1670   -6.1110    1.6060 hc        1 MOL      0.082401
    157 H69        -4.2510   -6.6010   -0.5770 hc        1 MOL     -0.005383
    158 H70        -5.6720   -6.0790   -1.3420 hc        1 MOL     -0.005383
    159 N14        -6.6170   -2.2970    1.0110 n         1 MOL     -0.372171
    160 C53        -6.6310   -1.7020   -0.3060 c3        1 MOL      0.189761
    161 C54        -7.1350   -2.5740   -1.4960 c         1 MOL      0.461633
    162 O24        -7.8070   -3.5940   -1.2450 o         1 MOL     -0.523583
    163 C55        -7.3530   -0.3510   -0.2600 c3        1 MOL     -0.216278
    164 C56        -8.9050   -0.4290   -0.2280 c3        1 MOL     -0.108180
    165 C57        -9.5780    0.8960   -0.1690 c         1 MOL      0.955691
    166 O25       -10.1890    1.3090    0.7940 o         1 MOL     -0.840415
    167 O26        -9.4670    1.7320   -1.1080 o         1 MOL     -0.840415
    168 H71        -7.1820   -1.8060    1.6940 hn        1 MOL      0.319658
    169 H72        -5.5770   -1.4990   -0.5290 h1        1 MOL      0.007904
    170 H73        -6.9980    0.3560   -1.0090 hc        1 MOL      0.014434
    171 H74        -7.0560    0.0700    0.6980 hc        1 MOL      0.014434
    172 H75        -9.2260   -1.1710    0.5080 hc        1 MOL      0.021261
    173 H76        -9.1620   -0.8330   -1.2030 hc        1 MOL      0.021261
    174 N15        -6.5480   -2.4350   -2.7190 n         1 MOL     -0.232511
    175 C58        -6.8950   -3.1980   -3.9820 c3        1 MOL     -0.410540
    176 H77        -6.2630   -2.8520   -4.8000 h1        1 MOL      0.157578
    177 H78        -6.7280   -4.2630   -3.8210 h1        1 MOL      0.157578
    178 H79        -7.9420   -3.0270   -4.2350 h1        1 MOL      0.157578
    179 H80        -5.8460   -1.7210   -2.8220 hn        1 MOL      0.249291
    180 Ca1       -11.2900    3.4500   -0.1150 Ca        1 MOL      1.671073
    181 O27       -13.3210    4.3900   -1.7060 oh        1 MOL     -0.922443
    182 H81       -14.2230    4.6140   -1.4820 ho        1 MOL      0.396940
    183 H82       -13.3510    4.2350   -2.6510 ho        1 MOL      0.396940
    184 O28       -13.6250    2.7670    0.6890 oh        1 MOL     -0.922443
    185 H83       -14.3610    3.0740    1.2210 ho        1 MOL      0.396940
    186 H84       -13.9430    1.9660    0.2720 ho        1 MOL      0.396940
    187 O29       -12.3920    1.5670   -1.7260 oh        1 MOL     -0.922443
    188 H85       -11.9790    0.9940   -2.3650 ho        1 MOL      0.396940
    189 H86       -13.1510    1.0690   -1.4170 ho        1 MOL      0.396940
    190 O30       -10.9690    3.7720    2.6160 oh        1 MOL     -0.922443
    191 H87       -11.6360    3.5300    3.2540 ho        1 MOL      0.396940
    192 H88       -10.2670    4.1570    3.1340 ho        1 MOL      0.396940
    193 O31       -12.2700    5.6640    0.8470 oh        1 MOL     -0.922443
    194 H89       -12.2360    5.6960    1.8010 ho        1 MOL      0.396940
    195 H90       -12.9330    6.3060    0.6110 ho        1 MOL      0.396940
@<TRIPOS>BOND
     1    1    2 1   
     2    1    4 1   
     3    1    5 1   
     4    1    6 1   
     5    2    3 2   
     6    2    7 1   
     7    7    8 1   
     8    7   15 1   
     9    8    9 1   
    10    8   11 1   
    11    8   16 1   
    12    9   10 2   
    13    9   19 1   
    14   11   12 1   
    15   11   17 1   
    16   11   18 1   
    17   12   13 1   
    18   12   14 1   
    19   19   20 1   
    20   19   27 1   
    21   20   21 1   
    22   20   23 1   
    23   20   28 1   
    24   21   22 2   
    25   21   38 1   
    26   23   24 1   
    27   23   25 1   
    28   23   29 1   
    29   24   26 1   
    30   24   30 1   
    31   24   31 1   
    32   25   32 1   
    33   25   33 1   
    34   25   34 1   
    35   26   35 1   
    36   26   36 1   
    37   26   37 1   
    38   38   39 1   
    39   38   46 1   
    40   39   40 1   
    41   39   42 1   
    42   39   47 1   
    43   40   41 2   
    44   40   50 1   
    45   42   43 1   
    46   42   48 1   
    47   42   49 1   
    48   43   44 1   
    49   43   45 1   
    50   50   51 1   
    51   50   54 1   
    52   51   52 1   
    53   51   55 1   
    54   51   56 1   
    55   52   53 2   
    56   52   57 1   
    57   57   58 1   
    58   57   65 1   
    59   58   59 1   
    60   58   61 1   
    61   58   66 1   
    62   59   60 2   
    63   59   69 1   
    64   61   62 1   
    65   61   67 1   
    66   61   68 1   
    67   62   63 1   
    68   62   64 1   
    69   69   70 1   
    70   69   73 1   
    71   70   71 1   
    72   70   74 1   
    73   70   75 1   
    74   71   72 2   
    75   71   76 1   
    76   76   77 1   
    77   76   85 1   
    78   77   78 1   
    79   77   80 1   
    80   77   86 1   
    81   78   79 2   
    82   78   93 1   
    83   80   81 1   
    84   80   87 1   
    85   80   88 1   
    86   81   82 1   
    87   81   89 1   
    88   81   90 1   
    89   82   83 1   
    90   82   84 2   
    91   83   91 1   
    92   83   92 1   
    93   93   94 1   
    94   93  100 1   
    95   94   95 1   
    96   94   97 1   
    97   94  101 1   
    98   95   96 2   
    99   95  109 1   
   100   97   98 1   
   101   97   99 1   
   102   97  102 1   
   103   98  103 1   
   104   98  104 1   
   105   98  105 1   
   106   99  106 1   
   107   99  107 1   
   108   99  108 1   
   109  109  110 1   
   110  109  117 1   
   111  110  111 1   
   112  110  113 1   
   113  110  118 1   
   114  111  112 2   
   115  111  123 1   
   116  113  114 1   
   117  113  119 1   
   118  113  120 1   
   119  114  115 1   
   120  114  116 2   
   121  115  121 1   
   122  115  122 1   
   123  123  124 1   
   124  123  135 1   
   125  124  125 1   
   126  124  127 1   
   127  124  136 1   
   128  125  126 2   
   129  125  144 1   
   130  127  128 1   
   131  127  137 1   
   132  127  138 1   
   133  128  129 ar  
   134  128  130 ar  
   135  129  131 ar  
   136  129  139 1   
   137  130  132 ar  
   138  130  140 1   
   139  131  133 ar  
   140  131  141 1   
   141  132  133 ar  
   142  132  142 1   
   143  133  134 1   
   144  134  143 1   
   145  144  145 1   
   146  144  153 1   
   147  145  146 1   
   148  145  148 1   
   149  145  154 1   
   150  146  147 2   
   151  146  159 1   
   152  148  149 1   
   153  148  155 1   
   154  148  156 1   
   155  149  150 1   
   156  149  157 1   
   157  149  158 1   
   158  150  151 1   
   159  150  152 1   
   160  159  160 1   
   161  159  168 1   
   162  160  161 1   
   163  160  163 1   
   164  160  169 1   
   165  161  162 2   
   166  161  174 1   
   167  163  164 1   
   168  163  170 1   
   169  163  171 1   
   170  164  165 1   
   171  164  172 1   
   172  164  173 1   
   173  165  166 1   
   174  165  167 1   
   175  174  175 1   
   176  174  179 1   
   177  175  176 1   
   178  175  177 1   
   179  175  178 1   
   180  181  182 1   
   181  181  183 1   
   182  184  185 1   
   183  184  186 1   
   184  187  188 1   
   185  187  189 1   
   186  190  191 1   
   187  190  192 1   
   188  193  194 1   
   189  193  195 1   
@<TRIPOS>SUBSTRUCTURE
     1 MOL         1 TEMP              0 ****  ****    0 ROOT
