@<TRIPOS>MOLECULE
MOL
  192   187     1     0     0
SMALL
resp


@<TRIPOS>ATOM
      1 C1          9.1570    0.8500    1.8480 c3        1 MOL     -0.623883
      2 C2          8.1450    0.2880    0.8600 c         1 MOL      0.865757
      3 O1          6.9590    0.3310    1.2210 o         1 MOL     -0.712475
      4 H1         10.1400    0.8850    1.3800 hc        1 MOL      0.152582
      5 H2          8.8590    1.8580    2.1410 hc        1 MOL      0.152582
      6 H3          9.1980    0.2120    2.7300 hc        1 MOL      0.152582
      7 N1          8.5120   -0.2960   -0.2660 n         1 MOL     -0.495529
      8 C3          7.5220   -0.5970   -1.2960 c3        1 MOL     -0.075855
      9 C4          6.9150   -2.0140   -1.1650 c         1 MOL      0.482614
     10 O2          6.6690   -2.8110   -2.0830 o         1 MOL     -0.451625
     11 C5          8.0590   -0.4020   -2.7440 c3        1 MOL      0.019949
     12 C6          9.3770   -1.1260   -2.9450 c         1 MOL      0.611048
     13 O3          9.4990   -1.7480   -4.0290 o         1 MOL     -0.611016
     14 O4         10.3730   -0.7930   -2.2410 o         1 MOL     -0.611016
     15 H4          9.4800   -0.2740   -0.5320 hn        1 MOL      0.203442
     16 H5          6.6490    0.0370   -1.1530 h1        1 MOL      0.109628
     17 H6          8.1890    0.6640   -2.9510 hc        1 MOL      0.028631
     18 H7          7.2470   -0.7300   -3.3870 hc        1 MOL      0.028631
     19 N2          6.5780   -2.2580    0.0980 n         1 MOL     -0.444017
     20 C7          5.8370   -3.4640    0.6540 c3        1 MOL      0.038948
     21 C8          4.4360   -3.5500   -0.0130 c         1 MOL      0.456702
     22 O5          4.1100   -4.6180   -0.5890 o         1 MOL     -0.532143
     23 C9          6.0490   -3.6250    2.2070 c3        1 MOL     -0.066431
     24 C10         7.4830   -3.7410    2.5350 c3        1 MOL      0.050323
     25 C11         7.7010   -4.0110    4.0290 c3        1 MOL     -0.036349
     26 C12         9.2260   -4.1850    4.2340 c3        1 MOL      0.101893
     27 N3          9.5730   -4.8440    5.5200 n4        1 MOL     -0.163308
     28 H8          7.0050   -1.6440    0.7660 hn        1 MOL      0.323159
     29 H9          6.3800   -4.2820    0.1780 h1        1 MOL      0.068792
     30 H10         5.4670   -4.4570    2.6080 hc        1 MOL      0.031772
     31 H11         5.6750   -2.6930    2.6140 hc        1 MOL      0.031772
     32 H12         7.9880   -2.8160    2.2650 hc        1 MOL      0.010872
     33 H13         7.9550   -4.5830    2.0370 hc        1 MOL      0.010872
     34 H14         7.3070   -4.9680    4.3830 hc        1 MOL      0.019261
     35 H15         7.2810   -3.2050    4.6410 hc        1 MOL      0.019261
     36 H16         9.6190   -3.1680    4.2980 hx        1 MOL      0.046303
     37 H17         9.7000   -4.7150    3.4050 hx        1 MOL      0.046303
     38 H18         9.4240   -5.8520    5.4870 hn        1 MOL      0.233295
     39 H19        10.5140   -4.6840    5.8360 hn        1 MOL      0.233295
     40 H20         8.9100   -4.6350    6.2570 hn        1 MOL      0.233295
     41 N4          3.6600   -2.4960   -0.0330 n         1 MOL     -0.212269
     42 C13         3.6040   -1.3260    0.8820 c3        1 MOL     -0.122751
     43 C14         3.8580   -0.0190    0.0770 c         1 MOL      0.053109
     44 O6          4.0110    0.0260   -1.1600 o         1 MOL     -0.354944
     45 C15         2.3410   -1.3310    1.7280 c3        1 MOL     -0.000498
     46 C16         1.0870   -1.7650    0.9420 c         1 MOL      0.479148
     47 O7          0.9300   -1.4030   -0.2960 o         1 MOL     -0.582150
     48 O8          0.2780   -2.5080    1.5870 o         1 MOL     -0.582150
     49 H21         2.9020   -2.4670   -0.7010 hn        1 MOL      0.299888
     50 H22         4.4120   -1.2690    1.6220 h1        1 MOL      0.149486
     51 H23         2.1910   -0.3210    2.1220 hc        1 MOL      0.016455
     52 H24         2.5060   -1.9340    2.6240 hc        1 MOL      0.016455
     53 N5          3.9150    1.1660    0.7340 n         1 MOL      0.039829
     54 C17         3.9830    2.5210    0.2330 c3        1 MOL     -0.244991
     55 C18         2.7610    2.9630   -0.6050 c         1 MOL      0.698359
     56 O9          1.6870    2.3750   -0.6490 o         1 MOL     -0.713578
     57 H25         3.9730    0.9980    1.7320 hn        1 MOL      0.178857
     58 H26         4.8860    2.7170   -0.3520 h1        1 MOL      0.113060
     59 H27         4.0150    3.1310    1.1340 h1        1 MOL      0.113060
     60 N6          2.8990    4.1190   -1.2410 n         1 MOL     -0.494265
     61 C19         1.9650    4.8780   -2.1530 c3        1 MOL      0.419072
     62 C20         2.1200    6.3800   -2.0180 c         1 MOL      0.385956
     63 O10         3.1970    6.9060   -1.5720 o         1 MOL     -0.536455
     64 C21         1.9820    4.2920   -3.5730 c3        1 MOL     -0.600974
     65 C22         1.9100    2.8190   -3.7350 c         1 MOL      0.836309
     66 O11         2.8570    2.1710   -4.1220 o         1 MOL     -0.682249
     67 O12         0.8090    2.2810   -3.4390 o         1 MOL     -0.682249
     68 H28         3.7670    4.5920   -1.0130 hn        1 MOL      0.259006
     69 H29         0.9500    4.7130   -1.7820 h1        1 MOL     -0.000601
     70 H30         2.9340    4.4810   -4.0610 hc        1 MOL      0.140698
     71 H31         1.2740    4.8800   -4.1450 hc        1 MOL      0.140698
     72 N7          1.0950    7.2320   -2.1420 n         1 MOL     -0.374071
     73 C23        -0.2560    6.8020   -2.5000 c3        1 MOL     -0.116925
     74 C24        -1.1560    6.4230   -1.3260 c         1 MOL      0.667474
     75 O13        -0.9440    6.9250   -0.2440 o         1 MOL     -0.545494
     76 H32         1.2100    8.2030   -1.9420 hn        1 MOL      0.321984
     77 H33        -0.2620    6.1020   -3.3480 h1        1 MOL      0.079116
     78 H34        -0.7210    7.7310   -2.8380 h1        1 MOL      0.079116
     79 N8         -2.0860    5.4730   -1.4890 n         1 MOL     -0.674150
     80 C25        -2.7670    4.8130   -0.2990 c3        1 MOL      0.081188
     81 C26        -1.8510    3.7830    0.3170 c         1 MOL      1.106985
     82 O14        -1.1020    3.1790   -0.4490 o         1 MOL     -0.752084
     83 C27        -4.1110    4.1760   -0.6100 c3        1 MOL      0.283708
     84 C28        -4.9340    3.6260    0.6030 c3        1 MOL     -0.308066
     85 O15        -3.9370    3.1360   -1.5840 oh        1 MOL     -0.613778
     86 H35        -2.1920    5.0400   -2.3920 hn        1 MOL      0.339619
     87 H36        -3.0030    5.5820    0.4350 h1        1 MOL      0.036032
     88 H37        -4.7170    4.9330   -1.0950 h1        1 MOL      0.030069
     89 H38        -4.8290    2.9960   -1.9190 ho        1 MOL      0.403534
     90 H39        -4.4470    2.7300    1.0090 hc        1 MOL      0.075470
     91 H40        -4.8810    4.3890    1.3860 hc        1 MOL      0.075470
     92 H41        -5.9710    3.3890    0.3780 hc        1 MOL      0.075470
     93 N9         -1.8130    3.7430    1.6750 n         1 MOL     -0.878837
     94 C29        -1.0220    2.8700    2.4950 c3        1 MOL      0.432962
     95 C30        -1.2380    1.3630    2.2590 c         1 MOL      0.174192
     96 O16        -0.6810    0.8410    1.2960 o         1 MOL     -0.540965
     97 C31         0.4260    3.2880    2.5050 c3        1 MOL     -0.004197
     98 C32         0.7420    4.6800    3.0000 c3        1 MOL     -0.206481
     99 C33         1.4380    2.3640    3.2310 c3        1 MOL     -0.567994
    100 C34         0.1560    5.1590    4.2850 c3        1 MOL      0.136471
    101 H42        -2.5260    4.3090    2.1170 hn        1 MOL      0.347830
    102 H43        -1.3970    3.0040    3.5150 h1        1 MOL     -0.008550
    103 H44         0.6000    3.2950    1.4270 hc        1 MOL      0.099589
    104 H45         0.3970    5.3560    2.2210 hc        1 MOL      0.073510
    105 H46         1.8260    4.8360    3.0500 hc        1 MOL      0.073510
    106 H47         1.1260    1.3390    2.9900 hc        1 MOL      0.160755
    107 H48         2.4580    2.5640    2.9110 hc        1 MOL      0.160755
    108 H49         1.4240    2.4520    4.3190 hc        1 MOL      0.160755
    109 H50         0.4740    6.1470    4.6090 hc        1 MOL     -0.031828
    110 H51        -0.9090    5.2350    4.0910 hc        1 MOL     -0.031828
    111 H52         0.2790    4.4270    5.0830 hc        1 MOL     -0.031828
    112 N10        -2.1260    0.7350    3.0120 n         1 MOL     -0.056191
    113 C35        -2.4670   -0.7210    2.9490 c3        1 MOL     -0.173312
    114 C36        -4.0000   -1.0030    2.9070 c         1 MOL      0.475350
    115 O17        -4.4530   -2.1080    3.1380 o         1 MOL     -0.537995
    116 C37        -1.7490   -1.4640    4.1390 c3        1 MOL      0.430674
    117 C38        -2.1970   -0.8350    5.4770 c3        1 MOL     -0.320904
    118 O18        -0.3420   -1.4340    4.0490 oh        1 MOL     -0.580359
    119 H53        -2.4200    1.2630    3.8230 hn        1 MOL      0.182620
    120 H54        -2.1420   -1.0110    1.9460 h1        1 MOL      0.148691
    121 H55        -2.0570   -2.5170    4.0880 h1        1 MOL      0.003480
    122 H56        -0.2220   -1.6680    3.1210 ho        1 MOL      0.321553
    123 H57        -2.0620    0.2390    5.4820 hc        1 MOL      0.074964
    124 H58        -3.2690   -1.0060    5.5900 hc        1 MOL      0.074964
    125 H59        -1.6630   -1.2840    6.3170 hc        1 MOL      0.074964
    126 N11        -4.8480    0.0260    2.6330 n         1 MOL     -0.145635
    127 C39        -6.3090   -0.0590    2.6490 c3        1 MOL      0.024418
    128 C40        -6.7640   -0.6310    1.3060 c         1 MOL      0.498380
    129 O19        -7.2620   -0.0010    0.4370 o         1 MOL     -0.483684
    130 C41        -6.9770    1.3370    2.8550 c3        1 MOL      0.457211
    131 C42        -8.4020    1.2340    3.3870 c3        1 MOL     -0.529998
    132 O20        -6.2210    2.0910    3.7850 oh        1 MOL     -0.655642
    133 H60        -4.4680    0.9440    2.4520 hn        1 MOL      0.060651
    134 H61        -6.6230   -0.6830    3.4840 h1        1 MOL      0.057249
    135 H62        -6.8600    1.8840    1.9150 h1        1 MOL     -0.048371
    136 H63        -6.7240    2.8930    3.9300 ho        1 MOL      0.407200
    137 H64        -8.3070    0.9170    4.4290 hc        1 MOL      0.135909
    138 H65        -8.9320    2.1900    3.3520 hc        1 MOL      0.135909
    139 H66        -9.0160    0.6080    2.7500 hc        1 MOL      0.135909
    140 N12        -6.5040   -1.9580    1.2540 n         1 MOL     -0.651147
    141 C43        -6.3550   -2.6510   -0.0460 c3        1 MOL      0.135981
    142 C44        -5.1400   -2.2640   -0.8610 c         1 MOL      0.650283
    143 O21        -4.7240   -1.1220   -0.8120 o         1 MOL     -0.556091
    144 C45        -7.7190   -2.5930   -0.8620 c3        1 MOL     -0.341633
    145 C46        -8.9650   -2.8390   -0.0820 c3        1 MOL      0.214481
    146 C47       -10.1400   -2.9860   -1.0070 c3        1 MOL     -0.165130
    147 C48       -11.3830   -3.0020   -0.1640 c3        1 MOL      0.125825
    148 N13       -12.5340   -2.9510   -1.0060 n4        1 MOL     -0.113393
    149 H67        -6.0770   -2.4250    2.0490 hn        1 MOL      0.357214
    150 H68        -6.2070   -3.6770    0.2920 h1        1 MOL      0.071156
    151 H69        -7.7200   -3.2730   -1.7170 hc        1 MOL      0.108941
    152 H70        -7.7930   -1.6160   -1.3340 hc        1 MOL      0.108941
    153 H71        -9.1010   -2.0870    0.7030 hc        1 MOL     -0.010050
    154 H72        -8.7560   -3.7880    0.4110 hc        1 MOL     -0.010050
    155 H73       -10.0080   -3.8440   -1.6660 hc        1 MOL      0.066520
    156 H74       -10.1710   -2.0520   -1.5620 hc        1 MOL      0.066520
    157 H75       -11.4710   -2.1790    0.5490 hx        1 MOL      0.034752
    158 H76       -11.4320   -3.9000    0.4510 hx        1 MOL      0.034752
    159 H77       -12.4520   -3.5300   -1.8330 hn        1 MOL      0.185036
    160 H78       -13.3150   -3.3480   -0.5080 hn        1 MOL      0.185036
    161 H79       -12.7980   -2.0570   -1.3850 hn        1 MOL      0.185036
    162 N14        -4.5220   -3.2460   -1.5080 n         1 MOL     -0.607689
    163 C49        -3.3200   -3.0730   -2.2880 c3        1 MOL      0.337813
    164 C50        -2.1240   -2.6930   -1.4190 c         1 MOL      0.162539
    165 O22        -1.4280   -1.7150   -1.8080 o         1 MOL     -0.494769
    166 C51        -2.9130   -4.2570   -3.1110 c3        1 MOL     -0.027359
    167 C52        -3.8400   -4.5760   -4.2500 c3        1 MOL     -0.183080
    168 C53        -3.2630   -5.7180   -5.1100 c         1 MOL      0.618605
    169 O23        -2.2740   -5.5730   -5.9280 o         1 MOL     -0.618365
    170 O24        -3.7940   -6.8390   -4.8230 o         1 MOL     -0.618365
    171 H80        -4.8630   -4.1850   -1.3320 hn        1 MOL      0.287901
    172 H81        -3.5520   -2.2350   -2.9410 h1        1 MOL      0.022681
    173 H82        -2.7550   -5.1400   -2.4870 hc        1 MOL      0.079490
    174 H83        -1.9640   -4.0170   -3.5940 hc        1 MOL      0.079490
    175 H84        -3.9810   -3.6670   -4.8420 hc        1 MOL      0.005554
    176 H85        -4.8410   -4.8300   -3.9150 hc        1 MOL      0.005554
    177 N15        -1.7320   -3.4030   -0.3230 n         1 MOL     -0.164612
    178 C54        -2.1420   -4.7080    0.2090 c3        1 MOL     -0.140576
    179 H86        -2.7450   -5.2300   -0.5350 h1        1 MOL      0.066317
    180 H87        -1.2570   -5.3020    0.4390 h1        1 MOL      0.066317
    181 H88        -2.7290   -4.5640    1.1150 h1        1 MOL      0.066317
    182 H89        -1.1350   -2.8330    0.2540 hn        1 MOL      0.278982
    183 Ca1        -0.1890    0.7590   -1.3860 Ca        1 MOL      1.822433
    184 O25        -1.7450    0.5800   -3.7710 oh        1 MOL     -0.898127
    185 H90        -1.4560    0.5830   -4.6780 ho        1 MOL      0.423415
    186 H91        -2.6820    0.3990   -3.8020 ho        1 MOL      0.423415
    187 O26        -2.8050    0.7760   -0.9250 oh        1 MOL     -0.898127
    188 H92        -3.4260    1.4950   -1.0490 ho        1 MOL      0.423415
    189 H93        -3.3530   -0.0070   -0.8670 ho        1 MOL      0.423415
    190 O27         1.8360   -0.2640   -2.9110 oh        1 MOL     -0.898127
    191 H94         2.0280    0.2290   -3.7160 ho        1 MOL      0.423415
    192 H95         2.6520   -0.2390   -2.4140 ho        1 MOL      0.423415
@<TRIPOS>BOND
     1    1    2 1   
     2    1    4 1   
     3    1    5 1   
     4    1    6 1   
     5    2    3 2   
     6    2    7 1   
     7    7    8 1   
     8    7   15 1   
     9    8    9 1   
    10    8   11 1   
    11    8   16 1   
    12    9   10 2   
    13    9   19 1   
    14   11   12 1   
    15   11   17 1   
    16   11   18 1   
    17   12   13 1   
    18   12   14 1   
    19   19   20 1   
    20   19   28 1   
    21   20   21 1   
    22   20   23 1   
    23   20   29 1   
    24   21   22 2   
    25   21   41 1   
    26   23   24 1   
    27   23   30 1   
    28   23   31 1   
    29   24   25 1   
    30   24   32 1   
    31   24   33 1   
    32   25   26 1   
    33   25   34 1   
    34   25   35 1   
    35   26   27 1   
    36   26   36 1   
    37   26   37 1   
    38   27   38 1   
    39   27   39 1   
    40   27   40 1   
    41   41   42 1   
    42   41   49 1   
    43   42   43 1   
    44   42   45 1   
    45   42   50 1   
    46   43   44 2   
    47   43   53 1   
    48   45   46 1   
    49   45   51 1   
    50   45   52 1   
    51   46   47 1   
    52   46   48 1   
    53   53   54 1   
    54   53   57 1   
    55   54   55 1   
    56   54   58 1   
    57   54   59 1   
    58   55   56 2   
    59   55   60 1   
    60   60   61 1   
    61   60   68 1   
    62   61   62 1   
    63   61   64 1   
    64   61   69 1   
    65   62   63 2   
    66   62   72 1   
    67   64   65 1   
    68   64   70 1   
    69   64   71 1   
    70   65   66 1   
    71   65   67 1   
    72   72   73 1   
    73   72   76 1   
    74   73   74 1   
    75   73   77 1   
    76   73   78 1   
    77   74   75 2   
    78   74   79 1   
    79   79   80 1   
    80   79   86 1   
    81   80   81 1   
    82   80   83 1   
    83   80   87 1   
    84   81   82 2   
    85   81   93 1   
    86   83   84 1   
    87   83   85 1   
    88   83   88 1   
    89   84   90 1   
    90   84   91 1   
    91   84   92 1   
    92   85   89 1   
    93   93   94 1   
    94   93  101 1   
    95   94   95 1   
    96   94   97 1   
    97   94  102 1   
    98   95   96 2   
    99   95  112 1   
   100   97   98 1   
   101   97   99 1   
   102   97  103 1   
   103   98  100 1   
   104   98  104 1   
   105   98  105 1   
   106   99  106 1   
   107   99  107 1   
   108   99  108 1   
   109  100  109 1   
   110  100  110 1   
   111  100  111 1   
   112  112  113 1   
   113  112  119 1   
   114  113  114 1   
   115  113  116 1   
   116  113  120 1   
   117  114  115 2   
   118  114  126 1   
   119  116  117 1   
   120  116  118 1   
   121  116  121 1   
   122  117  123 1   
   123  117  124 1   
   124  117  125 1   
   125  118  122 1   
   126  126  127 1   
   127  126  133 1   
   128  127  128 1   
   129  127  130 1   
   130  127  134 1   
   131  128  129 2   
   132  128  140 1   
   133  130  131 1   
   134  130  132 1   
   135  130  135 1   
   136  131  137 1   
   137  131  138 1   
   138  131  139 1   
   139  132  136 1   
   140  140  141 1   
   141  140  149 1   
   142  141  142 1   
   143  141  144 1   
   144  141  150 1   
   145  142  143 2   
   146  142  162 1   
   147  144  145 1   
   148  144  151 1   
   149  144  152 1   
   150  145  146 1   
   151  145  153 1   
   152  145  154 1   
   153  146  147 1   
   154  146  155 1   
   155  146  156 1   
   156  147  148 1   
   157  147  157 1   
   158  147  158 1   
   159  148  159 1   
   160  148  160 1   
   161  148  161 1   
   162  162  163 1   
   163  162  171 1   
   164  163  164 1   
   165  163  166 1   
   166  163  172 1   
   167  164  165 2   
   168  164  177 1   
   169  166  167 1   
   170  166  173 1   
   171  166  174 1   
   172  167  168 1   
   173  167  175 1   
   174  167  176 1   
   175  168  169 1   
   176  168  170 1   
   177  177  178 1   
   178  177  182 1   
   179  178  179 1   
   180  178  180 1   
   181  178  181 1   
   182  184  185 1   
   183  184  186 1   
   184  187  188 1   
   185  187  189 1   
   186  190  191 1   
   187  190  192 1   
@<TRIPOS>SUBSTRUCTURE
     1 MOL         1 TEMP              0 ****  ****    0 ROOT
