@<TRIPOS>MOLECULE
MOL
  192   187     1     0     0
SMALL
resp


@<TRIPOS>ATOM
      1 C1          9.7960    1.3490    0.9680 c3        1 MOL     -0.398433
      2 C2          8.6040    0.5440    0.3730 c         1 MOL      0.602479
      3 O1          7.5640    0.3570    1.0710 o         1 MOL     -0.606305
      4 H1          9.5360    1.6970    1.9670 hc        1 MOL      0.109470
      5 H2         10.6750    0.7070    1.0240 hc        1 MOL      0.109470
      6 H3         10.0110    2.2060    0.3290 hc        1 MOL      0.109470
      7 N1          8.7250    0.2960   -0.9190 n         1 MOL     -0.340054
      8 C3          7.7330   -0.1880   -1.7960 c3        1 MOL     -0.270700
      9 C4          7.2590   -1.6820   -1.5550 c         1 MOL      0.601707
     10 O2          7.1880   -2.4750   -2.4500 o         1 MOL     -0.452129
     11 C5          7.9530    0.1210   -3.2870 c3        1 MOL      0.027895
     12 C6          9.3930   -0.0830   -3.8300 c         1 MOL      0.750001
     13 O3         10.0450    0.9370   -3.9240 o         1 MOL     -0.678106
     14 O4          9.6870   -1.1810   -4.3270 o         1 MOL     -0.678106
     15 H4          9.6090    0.6920   -1.1980 hn        1 MOL      0.237126
     16 H5          6.9220    0.5050   -1.5560 h1        1 MOL      0.199682
     17 H6          7.7280    1.1530   -3.5400 hc        1 MOL      0.008037
     18 H7          7.2780   -0.4020   -3.9670 hc        1 MOL      0.008037
     19 N2          6.8800   -1.9880   -0.2750 n         1 MOL     -0.423678
     20 C7          6.4250   -3.2700    0.2380 c3        1 MOL      0.279686
     21 C8          4.9450   -3.6330    0.0300 c         1 MOL      0.359324
     22 O5          4.5480   -4.7000   -0.4280 o         1 MOL     -0.519007
     23 C9          6.7980   -3.6020    1.7570 c3        1 MOL     -0.017654
     24 C10         8.2890   -3.3220    1.9830 c3        1 MOL     -0.028400
     25 C11         8.7660   -3.9340    3.1970 c3        1 MOL      0.180880
     26 C12        10.2270   -3.5860    3.3870 c3        1 MOL     -0.053463
     27 N3         10.4480   -3.7330    4.8510 n4        1 MOL     -0.307527
     28 H8          7.0190   -1.3060    0.4600 hn        1 MOL      0.139589
     29 H9          6.9490   -4.0580   -0.3160 h1        1 MOL      0.015263
     30 H10         6.7000   -4.6750    1.9470 hc        1 MOL     -0.015980
     31 H11         6.2170   -3.1180    2.5400 hc        1 MOL     -0.015980
     32 H12         8.4240   -2.2460    1.9500 hc        1 MOL      0.009643
     33 H13         8.8400   -3.7330    1.1280 hc        1 MOL      0.009643
     34 H14         8.7760   -5.0180    3.2240 hc        1 MOL     -0.011592
     35 H15         8.2570   -3.5960    4.0950 hc        1 MOL     -0.011592
     36 H16        10.3810   -2.5530    3.0810 hx        1 MOL      0.097526
     37 H17        10.8000   -4.3160    2.8180 hx        1 MOL      0.097526
     38 H18        10.4640   -4.7160    5.0810 hn        1 MOL      0.263900
     39 H19        11.3410   -3.3560    5.1480 hn        1 MOL      0.263900
     40 H20         9.7800   -3.1830    5.3770 hn        1 MOL      0.263900
     41 N4          3.9810   -2.6740    0.1030 n         1 MOL     -0.228508
     42 C13         4.1090   -1.4070    0.9420 c3        1 MOL     -0.060799
     43 C14         4.1140   -0.1320   -0.0050 c         1 MOL      0.059871
     44 O6          4.0380   -0.3060   -1.2170 o         1 MOL     -0.406070
     45 C15         2.9510   -1.3700    1.9360 c3        1 MOL     -0.117317
     46 C16         1.5790   -1.7920    1.3160 c         1 MOL      0.706096
     47 O7          1.1940   -1.1990    0.2830 o         1 MOL     -0.697047
     48 O8          0.8950   -2.6790    1.8830 o         1 MOL     -0.697047
     49 H21         3.0770   -3.1080    0.1810 hn        1 MOL      0.290704
     50 H22         5.0230   -1.3960    1.5280 h1        1 MOL      0.153102
     51 H23         2.8690   -0.4100    2.4540 hc        1 MOL      0.002899
     52 H24         3.2340   -2.1030    2.6860 hc        1 MOL      0.002899
     53 N5          4.2940    1.0780    0.5830 n         1 MOL     -0.030278
     54 C17         4.0890    2.3350   -0.0820 c3        1 MOL     -0.233064
     55 C18         2.7140    2.5620   -0.7570 c         1 MOL      0.874705
     56 O9          1.6990    1.9230   -0.4470 o         1 MOL     -0.706221
     57 H25         4.4210    0.9970    1.5810 hn        1 MOL      0.214217
     58 H26         4.8220    2.3360   -0.8840 h1        1 MOL      0.085807
     59 H27         4.2440    3.1550    0.6150 h1        1 MOL      0.085807
     60 N6          2.7880    3.4600   -1.7110 n         1 MOL     -0.636657
     61 C19         1.6970    3.9420   -2.5790 c3        1 MOL      0.368796
     62 C20         1.9100    5.4190   -2.9200 c         1 MOL      0.443587
     63 O10         3.0630    5.9140   -2.9880 o         1 MOL     -0.542775
     64 C21         1.5550    3.0620   -3.8500 c3        1 MOL     -0.392871
     65 C22         0.2750    2.1700   -3.7910 c         1 MOL      0.794864
     66 O11         0.0010    1.5020   -4.7410 o         1 MOL     -0.694670
     67 O12        -0.4700    2.1940   -2.7770 o         1 MOL     -0.694670
     68 H28         3.6150    4.0360   -1.7960 hn        1 MOL      0.283327
     69 H29         0.8050    3.7660   -1.9700 h1        1 MOL      0.019308
     70 H30         2.3930    2.3760   -3.8900 hc        1 MOL      0.109497
     71 H31         1.5180    3.7680   -4.6850 hc        1 MOL      0.109497
     72 N7          0.8830    6.2170   -3.0410 n         1 MOL     -0.442843
     73 C23        -0.6070    5.9460   -2.8700 c3        1 MOL     -0.000917
     74 C24        -1.0990    6.0680   -1.4390 c         1 MOL      0.479153
     75 O13        -0.5500    6.9300   -0.6760 o         1 MOL     -0.526997
     76 H32         1.0750    7.2060   -3.0860 hn        1 MOL      0.311587
     77 H33        -0.8380    4.9630   -3.2740 h1        1 MOL      0.073112
     78 H34        -1.1830    6.6380   -3.4810 h1        1 MOL      0.073112
     79 N8         -1.9750    5.1890   -0.9670 n         1 MOL     -0.479390
     80 C25        -2.4310    4.9090    0.4120 c3        1 MOL      0.117790
     81 C26        -1.6750    3.7000    0.9980 c         1 MOL      0.562490
     82 O14        -1.0690    2.9330    0.2190 o         1 MOL     -0.482612
     83 C27        -3.9360    4.6050    0.3380 c3        1 MOL      0.074057
     84 C28        -4.5560    3.9650    1.5860 c3        1 MOL     -0.231964
     85 O15        -4.2460    3.7140   -0.6700 oh        1 MOL     -0.583553
     86 H35        -2.3350    4.5110   -1.6280 hn        1 MOL      0.266702
     87 H36        -2.2230    5.8110    0.9870 h1        1 MOL      0.062381
     88 H37        -4.5010    5.5120    0.1570 h1        1 MOL      0.072685
     89 H38        -4.7280    4.2590   -1.2890 ho        1 MOL      0.428884
     90 H39        -4.1180    2.9840    1.7820 hc        1 MOL      0.077290
     91 H40        -4.4140    4.6950    2.3830 hc        1 MOL      0.077290
     92 H41        -5.6320    3.9370    1.3950 hc        1 MOL      0.077290
     93 N9         -1.5900    3.6300    2.3360 n         1 MOL     -0.245794
     94 C29        -0.8940    2.6530    3.0980 c3        1 MOL     -0.262698
     95 C30        -1.4290    1.2130    2.8450 c         1 MOL      0.417236
     96 O16        -0.9500    0.5030    1.9280 o         1 MOL     -0.501937
     97 C31         0.6630    2.8190    3.0340 c3        1 MOL      0.242011
     98 C32         1.1030    4.2790    3.4110 c3        1 MOL     -0.309594
     99 C33         1.3300    1.9060    4.0810 c3        1 MOL     -0.533785
    100 C34         1.1640    5.1200    2.1940 c3        1 MOL      0.141047
    101 H42        -2.1750    4.2950    2.8330 hn        1 MOL      0.223024
    102 H43        -1.0960    2.9680    4.1250 h1        1 MOL      0.135161
    103 H44         1.0360    2.4350    2.0870 hc        1 MOL      0.046168
    104 H45         2.1060    4.3070    3.8510 hc        1 MOL      0.082651
    105 H46         0.4160    4.6500    4.1800 hc        1 MOL      0.082651
    106 H47         1.1640    2.3010    5.0740 hc        1 MOL      0.141410
    107 H48         1.1140    0.8390    4.0280 hc        1 MOL      0.141410
    108 H49         2.4110    1.8720    3.9450 hc        1 MOL      0.141410
    109 H50         1.7330    6.0370    2.3730 hc        1 MOL     -0.026246
    110 H51         1.6160    4.5200    1.3920 hc        1 MOL     -0.026246
    111 H52         0.1970    5.4570    1.8380 hc        1 MOL     -0.026246
    112 N10        -2.2200    0.7350    3.7400 n         1 MOL     -0.093500
    113 C35        -2.6550   -0.6530    3.8900 c3        1 MOL     -0.336552
    114 C36        -4.0210   -0.9660    3.2320 c         1 MOL      0.588069
    115 O17        -4.4610   -2.1130    3.1200 o         1 MOL     -0.556078
    116 C37        -2.7160   -0.9960    5.3820 c3        1 MOL      0.426315
    117 C38        -3.6550   -0.0800    6.2160 c3        1 MOL     -0.409412
    118 O18        -1.4530   -0.8190    6.0240 oh        1 MOL     -0.615000
    119 H53        -2.5560    1.4120    4.4030 hn        1 MOL      0.165665
    120 H54        -1.8950   -1.4090    3.6380 h1        1 MOL      0.195521
    121 H55        -2.9480   -2.0600    5.4950 h1        1 MOL      0.008028
    122 H56        -0.8560   -1.4480    5.6200 ho        1 MOL      0.392515
    123 H57        -4.6650   -0.1170    5.8070 hc        1 MOL      0.113780
    124 H58        -3.5750   -0.1680    7.3040 hc        1 MOL      0.113780
    125 H59        -3.2020    0.9110    6.0790 hc        1 MOL      0.113780
    126 N11        -4.7970    0.0340    2.7940 n         1 MOL     -0.270523
    127 C39        -6.2350   -0.0780    2.2470 c3        1 MOL     -0.150632
    128 C40        -6.1870   -0.5990    0.8590 c         1 MOL      0.573807
    129 O19        -5.4830   -0.0450    0.0530 o         1 MOL     -0.511090
    130 C41        -6.9970    1.3080    2.2890 c3        1 MOL      0.420376
    131 C42        -8.4890    1.1550    2.3040 c3        1 MOL     -0.371881
    132 O20        -6.7240    1.9510    3.5770 oh        1 MOL     -0.673489
    133 H60        -4.3650    0.9470    2.8420 hn        1 MOL      0.159593
    134 H61        -6.7050   -0.8320    2.8760 h1        1 MOL      0.073582
    135 H62        -6.7010    1.8400    1.3830 h1        1 MOL      0.038956
    136 H63        -7.1090    1.3580    4.2250 ho        1 MOL      0.420880
    137 H64        -8.7160    0.5570    1.4160 hc        1 MOL      0.102903
    138 H65        -8.8820    0.6760    3.2090 hc        1 MOL      0.102903
    139 H66        -8.9300    2.1430    2.1580 hc        1 MOL      0.102903
    140 N12        -6.8490   -1.6920    0.5490 n         1 MOL     -0.455469
    141 C43        -7.0090   -2.2720   -0.8310 c3        1 MOL      0.015771
    142 C44        -5.6800   -2.3960   -1.5450 c         1 MOL      0.513712
    143 O21        -5.5200   -1.9770   -2.6670 o         1 MOL     -0.534908
    144 C45        -8.1660   -1.4500   -1.5310 c3        1 MOL     -0.475471
    145 C46        -9.5160   -1.7800   -0.9830 c3        1 MOL      0.351950
    146 C47       -10.6960   -1.1650   -1.7530 c3        1 MOL     -0.295965
    147 C48       -10.6550   -1.5470   -3.2220 c3        1 MOL      0.155541
    148 N13       -10.7580   -3.0310   -3.4340 n4        1 MOL     -0.323159
    149 H67        -7.4050   -2.0830    1.2840 hn        1 MOL      0.273334
    150 H68        -7.3550   -3.3140   -0.8250 h1        1 MOL      0.050737
    151 H69        -8.0850   -1.9000   -2.5230 hc        1 MOL      0.173840
    152 H70        -7.8820   -0.3930   -1.5290 hc        1 MOL      0.173840
    153 H71        -9.5720   -1.5440    0.0760 hc        1 MOL     -0.056461
    154 H72        -9.5540   -2.8710   -0.9810 hc        1 MOL     -0.056461
    155 H73       -10.6170   -0.0860   -1.6240 hc        1 MOL      0.091620
    156 H74       -11.5080   -1.7150   -1.2830 hc        1 MOL      0.091620
    157 H75        -9.6870   -1.2720   -3.6380 hx        1 MOL      0.056143
    158 H76       -11.4460   -1.0740   -3.8110 hx        1 MOL      0.056143
    159 H77       -11.5420   -3.3980   -2.9200 hn        1 MOL      0.256784
    160 H78       -11.0080   -3.2110   -4.3980 hn        1 MOL      0.256784
    161 H79        -9.8690   -3.5070   -3.4070 hn        1 MOL      0.256784
    162 N14        -4.7490   -2.9590   -0.7900 n         1 MOL     -0.172678
    163 C49        -3.4040   -3.2580   -1.2210 c3        1 MOL      0.088605
    164 C50        -2.4230   -2.6740   -0.1550 c         1 MOL      0.326428
    165 O22        -2.0940   -1.5160   -0.1630 o         1 MOL     -0.556820
    166 C51        -3.2320   -4.7210   -1.6900 c3        1 MOL      0.152352
    167 C52        -4.1000   -4.9430   -3.0080 c3        1 MOL     -0.243573
    168 C53        -3.9830   -6.3760   -3.5900 c         1 MOL      0.702672
    169 O23        -3.1610   -6.6230   -4.4860 o         1 MOL     -0.647396
    170 O24        -4.6360   -7.2920   -3.0180 o         1 MOL     -0.647396
    171 H80        -5.1140   -3.3650    0.0620 hn        1 MOL      0.205941
    172 H81        -3.1720   -2.5830   -2.0470 h1        1 MOL      0.119906
    173 H82        -3.7580   -5.3910   -1.0120 hc        1 MOL     -0.004563
    174 H83        -2.1730   -4.9250   -1.8250 hc        1 MOL     -0.004563
    175 H84        -3.7300   -4.2530   -3.7630 hc        1 MOL      0.010678
    176 H85        -5.1580   -4.7680   -2.8530 hc        1 MOL      0.010678
    177 N15        -1.7920   -3.4430    0.7890 n         1 MOL     -0.274002
    178 C54        -2.1070   -4.7960    1.2170 c3        1 MOL     -0.073755
    179 H86        -1.2750   -5.1970    1.7940 h1        1 MOL      0.043813
    180 H87        -3.0040   -4.7820    1.8350 h1        1 MOL      0.043813
    181 H88        -2.2770   -5.4230    0.3420 h1        1 MOL      0.043813
    182 H89        -1.2200   -2.9020    1.4200 hn        1 MOL      0.310763
    183 Ca1        -0.4470    0.5430   -0.8000 Ca        1 MOL      1.753014
    184 O25        -3.1850    1.0900   -0.8890 oh        1 MOL     -0.909013
    185 H90        -3.7230    1.8540   -0.7060 ho        1 MOL      0.431297
    186 H91        -3.7640    0.3410   -0.7630 ho        1 MOL      0.431297
    187 O26        -1.3680   -0.5690   -3.1440 oh        1 MOL     -0.909013
    188 H92        -1.3730   -1.4210   -3.5800 ho        1 MOL      0.431297
    189 H93        -0.9020    0.0190   -3.7440 ho        1 MOL      0.431297
    190 O27         1.3350   -0.3050   -2.4920 oh        1 MOL     -0.909013
    191 H94         1.3800   -0.7760   -3.3260 ho        1 MOL      0.431297
    192 H95         2.1870   -0.4520   -2.0860 ho        1 MOL      0.431297
@<TRIPOS>BOND
     1    1    2 1   
     2    1    4 1   
     3    1    5 1   
     4    1    6 1   
     5    2    3 2   
     6    2    7 1   
     7    7    8 1   
     8    7   15 1   
     9    8    9 1   
    10    8   11 1   
    11    8   16 1   
    12    9   10 2   
    13    9   19 1   
    14   11   12 1   
    15   11   17 1   
    16   11   18 1   
    17   12   13 1   
    18   12   14 1   
    19   19   20 1   
    20   19   28 1   
    21   20   21 1   
    22   20   23 1   
    23   20   29 1   
    24   21   22 2   
    25   21   41 1   
    26   23   24 1   
    27   23   30 1   
    28   23   31 1   
    29   24   25 1   
    30   24   32 1   
    31   24   33 1   
    32   25   26 1   
    33   25   34 1   
    34   25   35 1   
    35   26   27 1   
    36   26   36 1   
    37   26   37 1   
    38   27   38 1   
    39   27   39 1   
    40   27   40 1   
    41   41   42 1   
    42   41   49 1   
    43   42   43 1   
    44   42   45 1   
    45   42   50 1   
    46   43   44 2   
    47   43   53 1   
    48   45   46 1   
    49   45   51 1   
    50   45   52 1   
    51   46   47 1   
    52   46   48 1   
    53   53   54 1   
    54   53   57 1   
    55   54   55 1   
    56   54   58 1   
    57   54   59 1   
    58   55   56 2   
    59   55   60 1   
    60   60   61 1   
    61   60   68 1   
    62   61   62 1   
    63   61   64 1   
    64   61   69 1   
    65   62   63 2   
    66   62   72 1   
    67   64   65 1   
    68   64   70 1   
    69   64   71 1   
    70   65   66 1   
    71   65   67 1   
    72   72   73 1   
    73   72   76 1   
    74   73   74 1   
    75   73   77 1   
    76   73   78 1   
    77   74   75 2   
    78   74   79 1   
    79   79   80 1   
    80   79   86 1   
    81   80   81 1   
    82   80   83 1   
    83   80   87 1   
    84   81   82 2   
    85   81   93 1   
    86   83   84 1   
    87   83   85 1   
    88   83   88 1   
    89   84   90 1   
    90   84   91 1   
    91   84   92 1   
    92   85   89 1   
    93   93   94 1   
    94   93  101 1   
    95   94   95 1   
    96   94   97 1   
    97   94  102 1   
    98   95   96 2   
    99   95  112 1   
   100   97   98 1   
   101   97   99 1   
   102   97  103 1   
   103   98  100 1   
   104   98  104 1   
   105   98  105 1   
   106   99  106 1   
   107   99  107 1   
   108   99  108 1   
   109  100  109 1   
   110  100  110 1   
   111  100  111 1   
   112  112  113 1   
   113  112  119 1   
   114  113  114 1   
   115  113  116 1   
   116  113  120 1   
   117  114  115 2   
   118  114  126 1   
   119  116  117 1   
   120  116  118 1   
   121  116  121 1   
   122  117  123 1   
   123  117  124 1   
   124  117  125 1   
   125  118  122 1   
   126  126  127 1   
   127  126  133 1   
   128  127  128 1   
   129  127  130 1   
   130  127  134 1   
   131  128  129 2   
   132  128  140 1   
   133  130  131 1   
   134  130  132 1   
   135  130  135 1   
   136  131  137 1   
   137  131  138 1   
   138  131  139 1   
   139  132  136 1   
   140  140  141 1   
   141  140  149 1   
   142  141  142 1   
   143  141  144 1   
   144  141  150 1   
   145  142  143 2   
   146  142  162 1   
   147  144  145 1   
   148  144  151 1   
   149  144  152 1   
   150  145  146 1   
   151  145  153 1   
   152  145  154 1   
   153  146  147 1   
   154  146  155 1   
   155  146  156 1   
   156  147  148 1   
   157  147  157 1   
   158  147  158 1   
   159  148  159 1   
   160  148  160 1   
   161  148  161 1   
   162  162  163 1   
   163  162  171 1   
   164  163  164 1   
   165  163  166 1   
   166  163  172 1   
   167  164  165 2   
   168  164  177 1   
   169  166  167 1   
   170  166  173 1   
   171  166  174 1   
   172  167  168 1   
   173  167  175 1   
   174  167  176 1   
   175  168  169 1   
   176  168  170 1   
   177  177  178 1   
   178  177  182 1   
   179  178  179 1   
   180  178  180 1   
   181  178  181 1   
   182  184  185 1   
   183  184  186 1   
   184  187  188 1   
   185  187  189 1   
   186  190  191 1   
   187  190  192 1   
@<TRIPOS>SUBSTRUCTURE
     1 MOL         1 TEMP              0 ****  ****    0 ROOT
