@<TRIPOS>MOLECULE
MOL
  198   191     1     0     0
SMALL
resp


@<TRIPOS>ATOM
      1 C1         -1.8300    6.1150    1.1780 c3        1 MOL     -0.453659
      2 C2         -3.4020    6.0460    0.7520 c         1 MOL      0.728258
      3 O1         -3.8320    6.7090   -0.1390 o         1 MOL     -0.544057
      4 H1         -1.5880    5.2600    1.8100 hc        1 MOL      0.115068
      5 H2         -1.2080    6.0910    0.2820 hc        1 MOL      0.115068
      6 H3         -1.6410    7.0370    1.7270 hc        1 MOL      0.115068
      7 N1         -4.1380    5.1350    1.3870 n         1 MOL     -0.696451
      8 C3         -5.6160    5.0520    1.2890 c3        1 MOL      0.488343
      9 C4         -6.1570    4.1630    0.1490 c         1 MOL      0.369628
     10 O2         -5.3780    3.8990   -0.8240 o         1 MOL     -0.524265
     11 C5         -6.2930    6.4150    1.3870 c3        1 MOL     -0.366650
     12 C6         -7.8000    6.4940    1.7390 c         1 MOL      0.708551
     13 O3         -8.5140    5.5320    1.9630 o         1 MOL     -0.706443
     14 O4         -8.2470    7.6990    1.8260 o         1 MOL     -0.706443
     15 H4         -3.8010    4.5060    2.1060 hn        1 MOL      0.316793
     16 H5         -5.9850    4.5080    2.1520 h1        1 MOL     -0.063329
     17 H6         -6.2810    6.8850    0.4020 hc        1 MOL      0.092074
     18 H7         -5.6880    7.0730    2.0120 hc        1 MOL      0.092074
     19 N2         -7.4080    3.7960    0.1910 n         1 MOL     -0.490084
     20 C7         -8.1350    3.1530   -0.8840 c3        1 MOL      0.110015
     21 C8         -7.6670    1.7280   -1.3520 c         1 MOL      0.528117
     22 O5         -8.4790    0.9260   -1.8250 o         1 MOL     -0.612388
     23 C9         -8.2490    4.1720   -2.0520 c3        1 MOL      0.021201
     24 C10        -9.4070    4.0250   -3.0670 c3        1 MOL     -0.092191
     25 C11       -10.7330    4.6200   -2.5470 c3        1 MOL     -0.225805
     26 C12       -11.9340    4.5310   -3.4410 c3        1 MOL      0.144297
     27 N3        -13.0820    5.1040   -2.7400 n4        1 MOL     -0.419679
     28 H8         -7.9300    4.0310    1.0310 hn        1 MOL      0.303606
     29 H9         -9.0930    2.9220   -0.4180 h1        1 MOL      0.061888
     30 H10        -7.3390    4.0590   -2.6360 hc        1 MOL      0.055425
     31 H11        -8.4100    5.2000   -1.7200 hc        1 MOL      0.055425
     32 H12        -9.5370    3.0080   -3.4180 hc        1 MOL      0.047556
     33 H13        -9.0240    4.5570   -3.9430 hc        1 MOL      0.047556
     34 H14       -10.4630    5.6400   -2.2770 hc        1 MOL      0.092730
     35 H15       -10.8760    4.1150   -1.5870 hc        1 MOL      0.092730
     36 H16       -12.0830    3.4960   -3.7570 hx        1 MOL      0.071566
     37 H17       -11.8400    5.0050   -4.4220 hx        1 MOL      0.071566
     38 H18       -12.9580    6.1030   -2.6870 hn        1 MOL      0.337438
     39 H19       -13.9290    4.9230   -3.2610 hn        1 MOL      0.337438
     40 H20       -13.2040    4.7950   -1.7800 hn        1 MOL      0.337438
     41 N4         -6.4460    1.3600   -1.0770 n         1 MOL     -0.534950
     42 C13        -5.8160    0.0390   -1.3260 c3        1 MOL      0.481764
     43 C14        -5.0310   -0.3890   -0.0320 c         1 MOL      0.284218
     44 O6         -3.9980    0.2410    0.3290 o         1 MOL     -0.521315
     45 C15        -4.9870    0.1100   -2.6240 c3        1 MOL     -0.344338
     46 C16        -4.2640   -1.2090   -2.9350 c         1 MOL      0.655534
     47 O7         -3.3770   -1.3240   -3.8120 o         1 MOL     -0.710514
     48 O8         -4.3970   -2.2560   -2.2480 o         1 MOL     -0.710514
     49 H21        -5.8340    2.0440   -0.6710 hn        1 MOL      0.270849
     50 H22        -6.5890   -0.6660   -1.6170 h1        1 MOL      0.037178
     51 H23        -4.2000    0.8410   -2.4700 hc        1 MOL      0.106691
     52 H24        -5.5820    0.3930   -3.4940 hc        1 MOL      0.106691
     53 N5         -5.4570   -1.4110    0.7170 n         1 MOL     -0.167508
     54 C17        -6.6170   -2.2210    0.5900 c3        1 MOL     -0.089800
     55 C18        -6.2390   -3.7350    0.6920 c         1 MOL      0.559805
     56 O9         -6.8580   -4.4560    1.4300 o         1 MOL     -0.552284
     57 H25        -4.9850   -1.5730    1.5950 hn        1 MOL      0.186279
     58 H26        -7.0280   -2.0370   -0.3980 h1        1 MOL      0.055384
     59 H27        -7.2870   -1.8750    1.3700 h1        1 MOL      0.055384
     60 N6         -5.1520   -4.1160   -0.0370 n         1 MOL     -0.075055
     61 C19        -4.4570   -5.3950    0.3030 c3        1 MOL     -0.356980
     62 C20        -2.9430   -5.2760    0.3930 c         1 MOL      0.788983
     63 O10        -2.3430   -4.5970   -0.4810 o         1 MOL     -0.721737
     64 C21        -4.9160   -6.5330   -0.5940 c3        1 MOL     -0.340018
     65 C22        -4.5570   -6.4920   -2.0760 c         1 MOL      0.679479
     66 O11        -4.6850   -7.5100   -2.8030 o         1 MOL     -0.673911
     67 O12        -4.0750   -5.4140   -2.5280 o         1 MOL     -0.673911
     68 H28        -4.7810   -3.4360   -0.6700 hn        1 MOL      0.073183
     69 H29        -4.8360   -5.7740    1.2470 h1        1 MOL      0.112163
     70 H30        -5.9950   -6.6180   -0.5070 hc        1 MOL      0.120260
     71 H31        -4.4120   -7.4490   -0.2820 hc        1 MOL      0.120260
     72 N7         -2.3420   -5.9470    1.3790 n         1 MOL     -0.293965
     73 C23        -1.0570   -5.8500    1.8540 c3        1 MOL     -0.179823
     74 C24        -0.7130   -4.7260    2.8640 c         1 MOL      0.630328
     75 O13         0.4760   -4.7460    3.2320 o         1 MOL     -0.561405
     76 H32        -2.9380   -6.5080    1.9760 hn        1 MOL      0.274403
     77 H33        -0.4670   -5.6590    0.9630 h1        1 MOL      0.089931
     78 H34        -0.7870   -6.8200    2.2590 h1        1 MOL      0.089931
     79 N8         -1.6300   -3.9410    3.4150 n         1 MOL     -0.447127
     80 C25        -1.3770   -2.6890    4.1800 c3        1 MOL     -0.002268
     81 C26        -0.8560   -1.5650    3.2290 c         1 MOL      0.458760
     82 O14        -1.1130   -1.5900    2.0510 o         1 MOL     -0.451759
     83 C27        -2.5900   -2.2220    4.9230 c3        1 MOL      0.343459
     84 C28        -3.6260   -1.6680    4.0310 c3        1 MOL      0.007041
     85 O15        -3.0910   -3.2620    5.7300 oh        1 MOL     -0.612297
     86 H35        -2.5280   -4.0020    2.9550 hn        1 MOL      0.194982
     87 H36        -0.6460   -2.8910    4.9780 h1        1 MOL      0.055242
     88 H37        -2.3220   -1.4110    5.6140 h1        1 MOL     -0.016498
     89 H38        -2.3080   -3.7440    6.0040 ho        1 MOL      0.382990
     90 H39        -4.5600   -1.5640    4.5700 hc        1 MOL      0.014448
     91 H40        -3.3720   -0.6450    3.7280 hc        1 MOL      0.014448
     92 H41        -3.8680   -2.2380    3.1320 hc        1 MOL      0.014448
     93 N9         -0.2680   -0.5320    3.8100 n         1 MOL     -0.143364
     94 C29         0.1780    0.6960    3.2120 c3        1 MOL     -0.586855
     95 C30         1.4120    0.5280    2.2350 c         1 MOL      0.599777
     96 O16         1.4440    1.2770    1.3320 o         1 MOL     -0.521152
     97 C31         0.2970    1.8600    4.3250 c3        1 MOL      0.375099
     98 C32         1.5240    1.6630    5.3190 c3        1 MOL      0.158974
     99 C33        -1.0760    1.9910    5.0610 c3        1 MOL     -0.453272
    100 C34         2.0430    2.9480    6.0410 c3        1 MOL     -0.378883
    101 H42        -0.0410   -0.5920    4.7960 hn        1 MOL      0.162636
    102 H43        -0.5900    1.0400    2.5190 h1        1 MOL      0.228897
    103 H44         0.5190    2.7830    3.7880 hc        1 MOL     -0.006226
    104 H45         2.4130    1.2810    4.8050 hc        1 MOL     -0.017165
    105 H46         1.2850    0.9530    6.1110 hc        1 MOL     -0.017165
    106 H47        -1.2360    1.0670    5.6320 hc        1 MOL      0.110422
    107 H48        -1.1770    2.9770    5.5030 hc        1 MOL      0.110422
    108 H49        -1.7810    1.9440    4.2390 hc        1 MOL      0.110422
    109 H50         2.5810    3.5310    5.2980 hc        1 MOL      0.096398
    110 H51         1.1830    3.4740    6.4520 hc        1 MOL      0.096398
    111 H52         2.6790    2.6340    6.8660 hc        1 MOL      0.096398
    112 N10         2.1850   -0.5700    2.2410 n         1 MOL     -0.150623
    113 C35         3.2700   -0.9360    1.3030 c3        1 MOL     -0.505245
    114 C36         4.5190   -1.5770    1.9030 c         1 MOL      0.793671
    115 O17         4.4080   -2.2370    2.9110 o         1 MOL     -0.527074
    116 C37         2.7800   -1.8820    0.1470 c3        1 MOL      0.384308
    117 C38         2.1000   -3.1490    0.6270 c3        1 MOL     -0.370027
    118 O18         1.8100   -1.1620   -0.6220 oh        1 MOL     -0.578831
    119 H53         2.0450   -1.1710    3.0380 hn        1 MOL      0.161279
    120 H54         3.4790    0.0710    0.9380 h1        1 MOL      0.150307
    121 H55         3.6130   -2.0580   -0.5230 h1        1 MOL      0.052683
    122 H56         1.1710   -0.8350    0.0010 ho        1 MOL      0.409275
    123 H57         1.0320   -2.9880    0.7700 hc        1 MOL      0.093667
    124 H58         2.2140   -3.8190   -0.2300 hc        1 MOL      0.093667
    125 H59         2.5150   -3.4670    1.5780 hc        1 MOL      0.093667
    126 N11         5.6840   -1.3380    1.2830 n         1 MOL     -0.593900
    127 C39         6.9140   -2.0460    1.5760 c3        1 MOL     -0.076931
    128 C40         8.1140   -1.1010    1.4690 c         1 MOL      0.654386
    129 O19         8.9570   -1.0890    2.3970 o         1 MOL     -0.561660
    130 C41         7.1500   -3.2930    0.6350 c3        1 MOL      0.309944
    131 C42         8.4860   -3.9670    1.0360 c3        1 MOL     -0.288200
    132 O20         6.9880   -3.0060   -0.7030 oh        1 MOL     -0.647938
    133 H60         5.6370   -0.6880    0.5050 hn        1 MOL      0.334648
    134 H61         6.9840   -2.3020    2.6310 h1        1 MOL      0.110031
    135 H62         6.3750   -4.0350    0.8450 h1        1 MOL      0.011638
    136 H63         7.0220   -3.8110   -1.2260 ho        1 MOL      0.429110
    137 H64         9.2930   -3.3380    0.6790 hc        1 MOL      0.078481
    138 H65         8.5690   -4.1880    2.1040 hc        1 MOL      0.078481
    139 H66         8.5690   -4.9320    0.5280 hc        1 MOL      0.078481
    140 N12         8.2720   -0.4970    0.3260 n         1 MOL     -0.509642
    141 C43         9.4060    0.3730   -0.0230 c3        1 MOL     -0.086825
    142 C44         8.8080    1.3160   -1.0690 c         1 MOL      0.713232
    143 O21         8.1180    0.8960   -1.9660 o         1 MOL     -0.545365
    144 C45        10.5630   -0.3870   -0.6000 c3        1 MOL     -0.007073
    145 C46        11.7170    0.5050   -1.1400 c3        1 MOL      0.048149
    146 C47        12.9550   -0.1840   -1.6260 c3        1 MOL     -0.096564
    147 C48        12.6390   -1.1050   -2.8040 c3        1 MOL      0.070161
    148 N13        13.8670   -1.9630   -3.0500 n4        1 MOL     -0.314967
    149 H67         7.5900   -0.6220   -0.4020 hn        1 MOL      0.318035
    150 H68         9.7280    0.9450    0.8540 h1        1 MOL      0.105914
    151 H69        10.2680   -1.0360   -1.4210 hc        1 MOL      0.011606
    152 H70        10.8960   -1.0230    0.2260 hc        1 MOL      0.011606
    153 H71        11.9290    1.3030   -0.4210 hc        1 MOL      0.015440
    154 H72        11.2620    0.8670   -2.0500 hc        1 MOL      0.015440
    155 H73        13.4540   -0.6970   -0.8030 hc        1 MOL      0.058999
    156 H74        13.5480    0.6240   -2.0400 hc        1 MOL      0.058999
    157 H75        12.4390   -0.5660   -3.7370 hx        1 MOL      0.082422
    158 H76        11.7960   -1.7670   -2.6190 hx        1 MOL      0.082422
    159 H77        13.7500   -2.4360   -3.9360 hn        1 MOL      0.263923
    160 H78        14.7350   -1.4500   -3.0240 hn        1 MOL      0.263923
    161 H79        13.9260   -2.6060   -2.2730 hn        1 MOL      0.263923
    162 N14         9.0810    2.5870   -0.8340 n         1 MOL     -0.553083
    163 C49         8.5830    3.6490   -1.6990 c3        1 MOL      0.078369
    164 C50         6.9800    3.6130   -1.9490 c         1 MOL      0.493156
    165 O22         6.4070    3.3240   -2.9690 o         1 MOL     -0.534427
    166 C51         9.0920    5.0560   -1.3060 c3        1 MOL      0.055820
    167 C52        10.4950    5.2600   -1.8250 c3        1 MOL     -0.169968
    168 C53        11.0030    6.7410   -1.7070 c         1 MOL      0.664753
    169 O23        10.8790    7.5280   -2.7060 o         1 MOL     -0.645255
    170 O24        11.5560    7.0870   -0.6110 o         1 MOL     -0.645255
    171 H80         9.7830    2.7710   -0.1300 hn        1 MOL      0.312911
    172 H81         8.9340    3.4400   -2.7080 h1        1 MOL      0.050319
    173 H82         9.0220    5.2890   -0.2430 hc        1 MOL      0.023996
    174 H83         8.4720    5.8150   -1.7760 hc        1 MOL      0.023996
    175 H84        10.4940    4.9560   -2.8730 hc        1 MOL      0.002732
    176 H85        11.2090    4.6270   -1.3020 hc        1 MOL      0.002732
    177 N15         6.1890    4.1740   -1.0280 n         1 MOL     -0.405141
    178 C54         6.4690    4.3070    0.4040 c3        1 MOL      0.058089
    179 H86         7.3450    3.7110    0.6590 h1        1 MOL      0.023332
    180 H87         6.6600    5.3530    0.6430 h1        1 MOL      0.023332
    181 H88         5.6110    3.9540    0.9770 h1        1 MOL      0.023332
    182 H89         5.2480    4.3460   -1.3800 hn        1 MOL      0.298048
    183 Ca1        -2.3020   -3.6420   -2.9820 Ca        1 MOL      1.812316
    184 O25        -1.3550   -5.6390   -4.2000 oh        1 MOL     -0.802503
    185 H90        -0.4160   -5.6630   -4.3720 ho        1 MOL      0.397358
    186 H91        -1.6410   -6.5420   -4.2910 ho        1 MOL      0.397358
    187 O26         0.2210   -4.0270   -2.2750 oh        1 MOL     -0.802503
    188 H92         0.1820   -4.9870   -2.3060 ho        1 MOL      0.397358
    189 H93         1.1180   -3.8290   -2.0190 ho        1 MOL      0.397358
    190 O27        -0.7350   -2.6330   -4.9000 oh        1 MOL     -0.802503
    191 H94        -0.0490   -2.0730   -4.5310 ho        1 MOL      0.397358
    192 H95        -0.5650   -2.6320   -5.8420 ho        1 MOL      0.397358
    193 O28        -1.6540   -1.7020   -1.2090 oh        1 MOL     -0.802503
    194 H96        -2.2320   -1.6320   -0.4480 ho        1 MOL      0.397358
    195 H97        -1.2270   -0.8590   -1.2690 ho        1 MOL      0.397358
    196 O29        -3.6280   -4.1660   -5.1960 oh        1 MOL     -0.802503
    197 H98        -4.2880   -4.8460   -5.3390 ho        1 MOL      0.397358
    198 H99        -3.5340   -3.7430   -6.0470 ho        1 MOL      0.397358
@<TRIPOS>BOND
     1    1    2 1   
     2    1    4 1   
     3    1    5 1   
     4    1    6 1   
     5    2    3 2   
     6    2    7 1   
     7    7    8 1   
     8    7   15 1   
     9    8    9 1   
    10    8   11 1   
    11    8   16 1   
    12    9   10 2   
    13    9   19 1   
    14   11   12 1   
    15   11   17 1   
    16   11   18 1   
    17   12   13 1   
    18   12   14 1   
    19   19   20 1   
    20   19   28 1   
    21   20   21 1   
    22   20   23 1   
    23   20   29 1   
    24   21   22 2   
    25   21   41 1   
    26   23   24 1   
    27   23   30 1   
    28   23   31 1   
    29   24   25 1   
    30   24   32 1   
    31   24   33 1   
    32   25   26 1   
    33   25   34 1   
    34   25   35 1   
    35   26   27 1   
    36   26   36 1   
    37   26   37 1   
    38   27   38 1   
    39   27   39 1   
    40   27   40 1   
    41   41   42 1   
    42   41   49 1   
    43   42   43 1   
    44   42   45 1   
    45   42   50 1   
    46   43   44 2   
    47   43   53 1   
    48   45   46 1   
    49   45   51 1   
    50   45   52 1   
    51   46   47 1   
    52   46   48 1   
    53   53   54 1   
    54   53   57 1   
    55   54   55 1   
    56   54   58 1   
    57   54   59 1   
    58   55   56 2   
    59   55   60 1   
    60   60   61 1   
    61   60   68 1   
    62   61   62 1   
    63   61   64 1   
    64   61   69 1   
    65   62   63 2   
    66   62   72 1   
    67   64   65 1   
    68   64   70 1   
    69   64   71 1   
    70   65   66 1   
    71   65   67 1   
    72   72   73 1   
    73   72   76 1   
    74   73   74 1   
    75   73   77 1   
    76   73   78 1   
    77   74   75 2   
    78   74   79 1   
    79   79   80 1   
    80   79   86 1   
    81   80   81 1   
    82   80   83 1   
    83   80   87 1   
    84   81   82 2   
    85   81   93 1   
    86   83   84 1   
    87   83   85 1   
    88   83   88 1   
    89   84   90 1   
    90   84   91 1   
    91   84   92 1   
    92   85   89 1   
    93   93   94 1   
    94   93  101 1   
    95   94   95 1   
    96   94   97 1   
    97   94  102 1   
    98   95   96 2   
    99   95  112 1   
   100   97   98 1   
   101   97   99 1   
   102   97  103 1   
   103   98  100 1   
   104   98  104 1   
   105   98  105 1   
   106   99  106 1   
   107   99  107 1   
   108   99  108 1   
   109  100  109 1   
   110  100  110 1   
   111  100  111 1   
   112  112  113 1   
   113  112  119 1   
   114  113  114 1   
   115  113  116 1   
   116  113  120 1   
   117  114  115 2   
   118  114  126 1   
   119  116  117 1   
   120  116  118 1   
   121  116  121 1   
   122  117  123 1   
   123  117  124 1   
   124  117  125 1   
   125  118  122 1   
   126  126  127 1   
   127  126  133 1   
   128  127  128 1   
   129  127  130 1   
   130  127  134 1   
   131  128  129 2   
   132  128  140 1   
   133  130  131 1   
   134  130  132 1   
   135  130  135 1   
   136  131  137 1   
   137  131  138 1   
   138  131  139 1   
   139  132  136 1   
   140  140  141 1   
   141  140  149 1   
   142  141  142 1   
   143  141  144 1   
   144  141  150 1   
   145  142  143 2   
   146  142  162 1   
   147  144  145 1   
   148  144  151 1   
   149  144  152 1   
   150  145  146 1   
   151  145  153 1   
   152  145  154 1   
   153  146  147 1   
   154  146  155 1   
   155  146  156 1   
   156  147  148 1   
   157  147  157 1   
   158  147  158 1   
   159  148  159 1   
   160  148  160 1   
   161  148  161 1   
   162  162  163 1   
   163  162  171 1   
   164  163  164 1   
   165  163  166 1   
   166  163  172 1   
   167  164  165 2   
   168  164  177 1   
   169  166  167 1   
   170  166  173 1   
   171  166  174 1   
   172  167  168 1   
   173  167  175 1   
   174  167  176 1   
   175  168  169 1   
   176  168  170 1   
   177  177  178 1   
   178  177  182 1   
   179  178  179 1   
   180  178  180 1   
   181  178  181 1   
   182  184  185 1   
   183  184  186 1   
   184  187  188 1   
   185  187  189 1   
   186  190  191 1   
   187  190  192 1   
   188  193  194 1   
   189  193  195 1   
   190  196  197 1   
   191  196  198 1   
@<TRIPOS>SUBSTRUCTURE
     1 MOL         1 TEMP              0 ****  ****    0 ROOT
