@<TRIPOS>MOLECULE
MOL
  184   179     1     0     0
SMALL
resp


@<TRIPOS>ATOM
      1 C1        -10.9340    6.3880   -1.7440 c3        1 MOL     -0.343866
      2 C2         -9.7500    5.3610   -1.9450 c         1 MOL      0.773450
      3 O1         -8.7670    5.6720   -2.6010 o         1 MOL     -0.600784
      4 H1        -11.8170    6.0320   -2.2750 hc        1 MOL      0.082380
      5 H2        -11.1610    6.4790   -0.6820 hc        1 MOL      0.082380
      6 H3        -10.6420    7.3620   -2.1390 hc        1 MOL      0.082380
      7 N1         -9.7760    4.1350   -1.4240 n         1 MOL     -0.709350
      8 C3        -10.8350    3.5920   -0.5370 c3        1 MOL      0.284886
      9 C4        -11.0680    2.0710   -0.8540 c         1 MOL      0.377754
     10 O2        -10.4840    1.4660   -1.7770 o         1 MOL     -0.371670
     11 C5        -10.3820    3.7320    0.9260 c3        1 MOL     -0.243791
     12 C6         -9.0870    3.0380    1.1910 c         1 MOL      0.703441
     13 O3         -7.9970    3.6000    0.9140 o         1 MOL     -0.720135
     14 O4         -9.0610    1.8610    1.5390 o         1 MOL     -0.720135
     15 H4         -8.8710    3.6930   -1.4490 hn        1 MOL      0.394136
     16 H5        -11.7880    4.1150   -0.6410 h1        1 MOL      0.020252
     17 H6        -11.2030    3.4440    1.5840 hc        1 MOL      0.042001
     18 H7        -10.2400    4.8030    0.9940 hc        1 MOL      0.042001
     19 N2        -11.9370    1.4300   -0.0480 n         1 MOL     -0.687217
     20 C7        -12.3950    0.0550   -0.1590 c3        1 MOL      0.619660
     21 C8        -11.3930   -1.1140   -0.2670 c         1 MOL      0.200705
     22 O5        -11.7360   -2.2760   -0.5650 o         1 MOL     -0.515003
     23 C9        -13.5110   -0.0550   -1.1030 c3        1 MOL     -0.313350
     24 H8        -12.3290    2.0750    0.6180 hn        1 MOL      0.325160
     25 H9        -12.8130   -0.2300    0.8040 h1        1 MOL     -0.049259
     26 H10       -14.3500    0.4760   -0.6500 hc        1 MOL      0.067062
     27 H11       -13.1370    0.3340   -2.0440 hc        1 MOL      0.067062
     28 H12       -13.7980   -1.1090   -1.2020 hc        1 MOL      0.067062
     29 N3        -10.0590   -0.8210   -0.1970 n         1 MOL      0.011295
     30 C10        -8.9660   -1.8510   -0.3710 c3        1 MOL     -0.054258
     31 C11        -8.0180   -2.0350    0.8530 c         1 MOL      0.421313
     32 O6         -7.6240   -1.0550    1.5030 o         1 MOL     -0.567063
     33 C12        -8.2500   -1.6350   -1.6560 c3        1 MOL     -0.003491
     34 C13        -7.6560   -0.2160   -1.9510 c         1 MOL      0.479678
     35 O7         -7.4320    0.0760   -3.1200 o         1 MOL     -0.613517
     36 O8         -7.4280    0.6140   -1.0140 o         1 MOL     -0.613517
     37 H13        -9.8050    0.1440   -0.0460 hn        1 MOL      0.008868
     38 H14        -9.4290   -2.8400   -0.4550 h1        1 MOL      0.020911
     39 H15        -8.9030   -1.8620   -2.4910 hc        1 MOL      0.038173
     40 H16        -7.4090   -2.3290   -1.7260 hc        1 MOL      0.038173
     41 N4         -7.5000   -3.2580    0.9670 n         1 MOL     -0.265413
     42 C14        -6.5710   -3.6470    1.9780 c3        1 MOL     -0.267853
     43 C15        -5.1180   -3.1060    1.8480 c         1 MOL      0.670742
     44 O9         -4.8030   -2.3820    0.8800 o         1 MOL     -0.530196
     45 H17        -7.7640   -3.9520    0.2930 hn        1 MOL      0.294287
     46 H18        -6.5670   -4.7420    1.9670 h1        1 MOL      0.122299
     47 H19        -6.9520   -3.2400    2.9260 h1        1 MOL      0.122299
     48 N5         -4.2500   -3.6110    2.6940 n         1 MOL     -0.494429
     49 C16        -2.7710   -3.4650    2.6950 c3        1 MOL      0.017500
     50 C17        -2.1520   -3.8670    1.3240 c         1 MOL      0.669675
     51 O10        -2.0010   -5.0220    0.9520 o         1 MOL     -0.549496
     52 C18        -2.2520   -4.2820    3.8710 c3        1 MOL     -0.367420
     53 C19        -2.6920   -3.8000    5.2660 c         1 MOL      0.766513
     54 N6         -2.4480   -2.5970    5.6540 n         1 MOL     -0.903710
     55 O11        -3.3190   -4.5260    6.0710 o         1 MOL     -0.606300
     56 H20        -4.5880   -4.1530    3.4760 hn        1 MOL      0.277869
     57 H21        -2.6000   -2.3910    2.7620 h1        1 MOL      0.032572
     58 H22        -1.1610   -4.2200    3.9200 hc        1 MOL      0.147042
     59 H23        -2.5090   -5.3400    3.7990 hc        1 MOL      0.147042
     60 H24        -2.0160   -1.8950    5.0830 hn        1 MOL      0.408611
     61 H25        -2.6330   -2.5370    6.6400 hn        1 MOL      0.408611
     62 N7         -1.8210   -2.8670    0.4910 n         1 MOL     -0.444189
     63 C20        -1.1710   -3.0340   -0.8150 c3        1 MOL     -0.180099
     64 C21        -1.2620   -1.7550   -1.6510 c         1 MOL      0.728634
     65 O12        -1.8190   -0.6830   -1.3190 o         1 MOL     -0.603785
     66 H26        -2.0790   -1.9240    0.7350 hn        1 MOL      0.258918
     67 H27        -1.6030   -3.8630   -1.3800 h1        1 MOL      0.179304
     68 H28        -0.1250   -3.2680   -0.5980 h1        1 MOL      0.179304
     69 N8         -0.6050   -1.6990   -2.8200 n         1 MOL     -0.655373
     70 C22         0.1010   -2.8520   -3.3510 c3        1 MOL      0.078593
     71 C23         1.5580   -2.7780   -3.0010 c         1 MOL      0.369467
     72 O13         2.1930   -3.7490   -2.6260 o         1 MOL     -0.458029
     73 C24        -0.1150   -2.9820   -4.8990 c3        1 MOL      0.275068
     74 C25         0.7200   -4.1290   -5.5760 c3        1 MOL     -0.467912
     75 O14        -1.4670   -3.3360   -5.0210 oh        1 MOL     -0.571166
     76 H29        -0.5970   -0.7870   -3.2520 hn        1 MOL      0.369664
     77 H30        -0.2090   -3.7650   -2.8490 h1        1 MOL      0.086710
     78 H31         0.1220   -1.9970   -5.3060 h1        1 MOL      0.008699
     79 H32        -1.6640   -3.2220   -5.9510 ho        1 MOL      0.377624
     80 H33         0.4530   -5.0850   -5.1310 hc        1 MOL      0.130723
     81 H34         0.6970   -4.2190   -6.6660 hc        1 MOL      0.130723
     82 H35         1.7670   -3.9690   -5.3240 hc        1 MOL      0.130723
     83 N9          2.0610   -1.5480   -2.7990 n         1 MOL     -0.353620
     84 C26         3.4120   -1.2470   -2.3180 c3        1 MOL     -0.127794
     85 C27         3.5360   -1.6550   -0.8800 c         1 MOL      0.496769
     86 O15         2.5670   -1.5950   -0.1290 o         1 MOL     -0.570458
     87 C28         3.7780    0.1960   -2.7320 c3        1 MOL      0.107796
     88 C29         2.7600    1.1670   -2.0740 c3        1 MOL      0.010054
     89 C30         3.8120    0.3050   -4.2490 c3        1 MOL     -0.243463
     90 C31         2.9550    2.6650   -2.3900 c3        1 MOL     -0.070363
     91 H36         1.4770   -0.8080   -3.1490 hn        1 MOL      0.280823
     92 H37         4.1140   -1.8340   -2.9160 h1        1 MOL      0.167426
     93 H38         4.7150    0.4390   -2.2320 hc        1 MOL      0.026335
     94 H39         2.8840    1.0710   -0.9950 hc        1 MOL      0.008592
     95 H40         1.7370    0.8360   -2.2610 hc        1 MOL      0.008592
     96 H41         2.8890   -0.0650   -4.6950 hc        1 MOL      0.050093
     97 H42         4.0420    1.3220   -4.5810 hc        1 MOL      0.050093
     98 H43         4.6340   -0.3570   -4.5230 hc        1 MOL      0.050093
     99 H44         2.3220    3.2250   -1.7080 hc        1 MOL      0.012160
    100 H45         3.9470    3.0830   -2.2290 hc        1 MOL      0.012160
    101 H46         2.5860    2.8290   -3.4060 hc        1 MOL      0.012160
    102 N10         4.6950   -2.1670   -0.3980 n         1 MOL     -0.240879
    103 C32         5.9430   -2.1390   -1.0850 c3        1 MOL     -0.053767
    104 C33         7.1600   -1.7120   -0.2930 c         1 MOL      0.428257
    105 O16         7.1400   -1.6370    0.9200 o         1 MOL     -0.413573
    106 C34         6.2220   -3.5240   -1.6120 c3        1 MOL      0.163823
    107 C35         6.0570   -4.6580   -0.6560 c         1 MOL      0.586582
    108 O17         5.6110   -5.7190   -1.1700 o         1 MOL     -0.691408
    109 O18         6.4050   -4.4990    0.5470 o         1 MOL     -0.691408
    110 H47         4.6040   -2.2710    0.6050 hn        1 MOL      0.279604
    111 H48         5.8490   -1.4750   -1.9470 h1        1 MOL      0.031018
    112 H49         7.1470   -3.5710   -2.1880 hc        1 MOL     -0.081677
    113 H50         5.5170   -3.7220   -2.4150 hc        1 MOL     -0.081677
    114 N11         8.2860   -1.2960   -1.0340 n         1 MOL     -0.609037
    115 C36         9.4870   -0.6220   -0.4400 c3        1 MOL      0.481967
    116 C37         9.8840    0.5970   -1.2940 c         1 MOL      0.241511
    117 O19         9.8650    0.5460   -2.5350 o         1 MOL     -0.524647
    118 C38        10.6160   -1.6860   -0.1560 c3        1 MOL     -0.320808
    119 C39        11.7750   -1.2160    0.6940 ca        1 MOL      0.126347
    120 C40        13.0120   -0.9480    0.0770 ca        1 MOL     -0.184057
    121 C41        11.5920   -1.1440    2.1070 ca        1 MOL     -0.184057
    122 C42        14.1450   -0.6150    0.8870 ca        1 MOL     -0.092498
    123 C43        12.6740   -0.7180    2.9000 ca        1 MOL     -0.092498
    124 C44        13.9350   -0.3950    2.2800 ca        1 MOL     -0.185092
    125 H51         8.1520   -1.2030   -2.0250 hn        1 MOL      0.296386
    126 H52         9.1650   -0.3610    0.5690 h1        1 MOL     -0.017572
    127 H53        10.9290   -2.1270   -1.1090 hc        1 MOL      0.114993
    128 H54        10.1130   -2.4730    0.4050 hc        1 MOL      0.114993
    129 H55        13.1370   -0.9380   -0.9960 ha        1 MOL      0.143550
    130 H56        10.6540   -1.2930    2.6330 ha        1 MOL      0.143550
    131 H57        15.0940   -0.3990    0.4210 ha        1 MOL      0.106047
    132 H58        12.6520   -0.6050    3.9690 ha        1 MOL      0.106047
    133 H59        14.7440   -0.0890    2.9360 ha        1 MOL      0.111120
    134 N12        10.3580    1.7520   -0.7360 n         1 MOL      0.033548
    135 C45        10.4380    1.9890    0.6810 c3        1 MOL     -0.367361
    136 C46         9.2000    2.7380    1.2150 c         1 MOL      0.619997
    137 O20         9.1170    2.9500    2.4010 o         1 MOL     -0.494852
    138 C47        11.6720    2.9410    0.7800 c3        1 MOL      0.089758
    139 C48        11.5160    3.8830   -0.4530 c3        1 MOL     -0.092542
    140 C49        10.8680    2.9160   -1.5450 c3        1 MOL     -0.207567
    141 H60        10.6350    1.0570    1.2110 h1        1 MOL      0.228886
    142 H61        11.6470    3.3710    1.7840 hc        1 MOL     -0.003376
    143 H62        12.5480    2.3400    0.5620 hc        1 MOL     -0.003376
    144 H63        10.8330    4.6730   -0.1490 hc        1 MOL      0.050250
    145 H64        12.4080    4.4130   -0.7840 hc        1 MOL      0.050250
    146 H65        10.0580    3.3650   -2.1170 h1        1 MOL      0.109621
    147 H66        11.6370    2.5760   -2.2370 h1        1 MOL      0.109621
    148 N13         8.2940    3.1540    0.3050 n         1 MOL     -0.629995
    149 C50         7.0850    3.8670    0.5870 c3        1 MOL      0.450204
    150 C51         6.7980    5.0470   -0.3650 c         1 MOL      0.349695
    151 O21         7.1480    4.8780   -1.5570 o         1 MOL     -0.570081
    152 C52         5.8870    2.8950    0.4580 c3        1 MOL     -0.079059
    153 C53         5.9840    1.8810    1.6690 c3        1 MOL     -0.184542
    154 C54         5.7560    2.3840    3.0860 c         1 MOL      0.631956
    155 O22         5.3500    3.5760    3.2050 o         1 MOL     -0.692566
    156 O23         6.0120    1.6480    4.0730 o         1 MOL     -0.692566
    157 H67         8.4360    2.8760   -0.6530 hn        1 MOL      0.309119
    158 H68         7.1460    4.2820    1.5960 h1        1 MOL      0.026680
    159 H69         5.9260    2.3340   -0.4780 hc        1 MOL      0.040942
    160 H70         4.9620    3.4670    0.4520 hc        1 MOL      0.040942
    161 H71         6.9180    1.3290    1.7610 hc        1 MOL      0.039930
    162 H72         5.2590    1.0900    1.5060 hc        1 MOL      0.039930
    163 N14         6.0860    6.1330    0.0260 n         1 MOL     -0.398669
    164 C55         5.6380    6.4480    1.3860 c3        1 MOL      0.049343
    165 H73         6.4370    6.9610    1.9210 h1        1 MOL      0.021322
    166 H74         4.7600    7.0920    1.3400 h1        1 MOL      0.021322
    167 H75         5.3850    5.5250    1.9080 h1        1 MOL      0.021322
    168 H76         5.9650    6.8460   -0.6760 hn        1 MOL      0.268267
    169 Ca1        -6.5350    1.2580    1.3460 Ca        1 MOL      1.725094
    170 O24        -7.0120    1.2810    3.9720 oh        1 MOL     -0.804531
    171 H77        -7.5000    0.5210    4.2760 ho        1 MOL      0.402500
    172 H78        -6.9530    1.8530    4.7360 ho        1 MOL      0.402500
    173 O25        -4.3280    0.1710    0.3340 oh        1 MOL     -0.804531
    174 H79        -3.5500    0.4690   -0.1370 ho        1 MOL      0.402500
    175 H80        -4.1830   -0.7640    0.4650 ho        1 MOL      0.402500
    176 O26        -4.2870   -0.0760    3.1930 oh        1 MOL     -0.804531
    177 H81        -3.7320    0.3720    3.8290 ho        1 MOL      0.402500
    178 H82        -4.9100   -0.5810    3.7110 ho        1 MOL      0.402500
    179 O27        -4.4970    2.8790    2.4140 oh        1 MOL     -0.804531
    180 H83        -3.7910    3.5080    2.2820 ho        1 MOL      0.402500
    181 H84        -4.0580    2.0800    2.7080 ho        1 MOL      0.402500
    182 O28        -5.3280    2.9660   -0.5020 oh        1 MOL     -0.804531
    183 H85        -6.0150    3.2100   -1.1260 ho        1 MOL      0.402500
    184 H86        -4.5750    3.4880   -0.7670 ho        1 MOL      0.402500
@<TRIPOS>BOND
     1    1    2 1   
     2    1    4 1   
     3    1    5 1   
     4    1    6 1   
     5    2    3 2   
     6    2    7 1   
     7    7    8 1   
     8    7   15 1   
     9    8    9 1   
    10    8   11 1   
    11    8   16 1   
    12    9   10 2   
    13    9   19 1   
    14   11   12 1   
    15   11   17 1   
    16   11   18 1   
    17   12   13 1   
    18   12   14 1   
    19   19   20 1   
    20   19   24 1   
    21   20   21 1   
    22   20   23 1   
    23   20   25 1   
    24   21   22 2   
    25   21   29 1   
    26   23   26 1   
    27   23   27 1   
    28   23   28 1   
    29   29   30 1   
    30   29   37 1   
    31   30   31 1   
    32   30   33 1   
    33   30   38 1   
    34   31   32 2   
    35   31   41 1   
    36   33   34 1   
    37   33   39 1   
    38   33   40 1   
    39   34   35 1   
    40   34   36 1   
    41   41   42 1   
    42   41   45 1   
    43   42   43 1   
    44   42   46 1   
    45   42   47 1   
    46   43   44 2   
    47   43   48 1   
    48   48   49 1   
    49   48   56 1   
    50   49   50 1   
    51   49   52 1   
    52   49   57 1   
    53   50   51 2   
    54   50   62 1   
    55   52   53 1   
    56   52   58 1   
    57   52   59 1   
    58   53   54 1   
    59   53   55 2   
    60   54   60 1   
    61   54   61 1   
    62   62   63 1   
    63   62   66 1   
    64   63   64 1   
    65   63   67 1   
    66   63   68 1   
    67   64   65 2   
    68   64   69 1   
    69   69   70 1   
    70   69   76 1   
    71   70   71 1   
    72   70   73 1   
    73   70   77 1   
    74   71   72 2   
    75   71   83 1   
    76   73   74 1   
    77   73   75 1   
    78   73   78 1   
    79   74   80 1   
    80   74   81 1   
    81   74   82 1   
    82   75   79 1   
    83   83   84 1   
    84   83   91 1   
    85   84   85 1   
    86   84   87 1   
    87   84   92 1   
    88   85   86 2   
    89   85  102 1   
    90   87   88 1   
    91   87   89 1   
    92   87   93 1   
    93   88   90 1   
    94   88   94 1   
    95   88   95 1   
    96   89   96 1   
    97   89   97 1   
    98   89   98 1   
    99   90   99 1   
   100   90  100 1   
   101   90  101 1   
   102  102  103 1   
   103  102  110 1   
   104  103  104 1   
   105  103  106 1   
   106  103  111 1   
   107  104  105 2   
   108  104  114 1   
   109  106  107 1   
   110  106  112 1   
   111  106  113 1   
   112  107  108 1   
   113  107  109 1   
   114  114  115 1   
   115  114  125 1   
   116  115  116 1   
   117  115  118 1   
   118  115  126 1   
   119  116  117 2   
   120  116  134 1   
   121  118  119 1   
   122  118  127 1   
   123  118  128 1   
   124  119  120 ar  
   125  119  121 ar  
   126  120  122 ar  
   127  120  129 1   
   128  121  123 ar  
   129  121  130 1   
   130  122  124 ar  
   131  122  131 1   
   132  123  124 ar  
   133  123  132 1   
   134  124  133 1   
   135  134  135 1   
   136  134  140 1   
   137  135  136 1   
   138  135  138 1   
   139  135  141 1   
   140  136  137 2   
   141  136  148 1   
   142  138  139 1   
   143  138  142 1   
   144  138  143 1   
   145  139  140 1   
   146  139  144 1   
   147  139  145 1   
   148  140  146 1   
   149  140  147 1   
   150  148  149 1   
   151  148  157 1   
   152  149  150 1   
   153  149  152 1   
   154  149  158 1   
   155  150  151 2   
   156  150  163 1   
   157  152  153 1   
   158  152  159 1   
   159  152  160 1   
   160  153  154 1   
   161  153  161 1   
   162  153  162 1   
   163  154  155 1   
   164  154  156 1   
   165  163  164 1   
   166  163  168 1   
   167  164  165 1   
   168  164  166 1   
   169  164  167 1   
   170  170  171 1   
   171  170  172 1   
   172  173  174 1   
   173  173  175 1   
   174  176  177 1   
   175  176  178 1   
   176  179  180 1   
   177  179  181 1   
   178  182  183 1   
   179  182  184 1   
@<TRIPOS>SUBSTRUCTURE
     1 MOL         1 TEMP              0 ****  ****    0 ROOT
