@<TRIPOS>MOLECULE
MOL
  195   189     1     0     0
SMALL
resp


@<TRIPOS>ATOM
      1 C1         -6.7580   -3.1350    4.6200 c3        1 MOL     -0.346523
      2 C2         -6.0720   -2.4830    3.4030 c         1 MOL      0.832837
      3 O1         -5.7340   -3.1530    2.4480 o         1 MOL     -0.643552
      4 H1         -7.3900   -2.4000    5.1170 hc        1 MOL      0.083784
      5 H2         -7.3690   -3.9740    4.2870 hc        1 MOL      0.083784
      6 H3         -6.0000   -3.4920    5.3170 hc        1 MOL      0.083784
      7 N1         -5.9920   -1.1870    3.2880 n         1 MOL     -0.568286
      8 C3         -5.3860   -0.4560    2.1650 c3        1 MOL      0.396738
      9 C4         -3.8990   -0.5380    1.9340 c         1 MOL     -0.040712
     10 O2         -3.4430    0.2510    1.0980 o         1 MOL     -0.201289
     11 C5         -5.8840    0.9960    2.3720 c3        1 MOL     -0.069051
     12 C6         -7.3270    1.2400    2.7560 c         1 MOL      0.629164
     13 O3         -7.8600    0.6800    3.7520 o         1 MOL     -0.667472
     14 O4         -7.8880    2.2150    2.2220 o         1 MOL     -0.667472
     15 H4         -6.3850   -0.6130    4.0280 hn        1 MOL      0.228975
     16 H5         -5.7430   -0.7960    1.1900 h1        1 MOL     -0.010937
     17 H6         -5.6740    1.5720    1.4680 hc        1 MOL     -0.013783
     18 H7         -5.3000    1.4460    3.1800 hc        1 MOL     -0.013783
     19 N2         -3.1600   -1.3570    2.7500 n         1 MOL     -0.172604
     20 C7         -1.7030   -1.2510    2.8280 c3        1 MOL      0.084172
     21 C8         -1.0350   -2.3300    1.9920 c         1 MOL      0.496508
     22 O5         -1.5170   -3.4700    2.1030 o         1 MOL     -0.526477
     23 C9         -1.2190   -1.2470    4.2700 c3        1 MOL     -0.142666
     24 C10        -1.7690   -0.0110    4.9940 c3        1 MOL     -0.121102
     25 C11        -1.0870    1.3080    4.4560 c3        1 MOL      0.260504
     26 C12        -1.0710    2.4080    5.5040 c3        1 MOL     -0.136493
     27 N3         -0.8700    3.7340    4.8800 n4        1 MOL     -0.139749
     28 H8         -3.6230   -2.0030    3.3680 hn        1 MOL      0.199575
     29 H9         -1.4600   -0.2870    2.3600 h1        1 MOL      0.032365
     30 H10        -0.1350   -1.3580    4.2600 hc        1 MOL      0.083259
     31 H11        -1.5680   -2.0550    4.9190 hc        1 MOL      0.083259
     32 H12        -1.6320   -0.0960    6.0730 hc        1 MOL      0.037418
     33 H13        -2.8450    0.0470    4.8740 hc        1 MOL      0.037418
     34 H14        -1.6380    1.7010    3.5950 hc        1 MOL     -0.023192
     35 H15        -0.0710    0.9890    4.2660 hc        1 MOL     -0.023192
     36 H16        -0.2490    2.2340    6.1930 hx        1 MOL      0.091544
     37 H17        -2.0200    2.4580    6.0280 hx        1 MOL      0.091544
     38 H18        -0.5840    4.4630    5.5140 hn        1 MOL      0.270141
     39 H19        -0.1320    3.7610    4.1940 hn        1 MOL      0.270141
     40 H20        -1.7690    4.0680    4.5590 hn        1 MOL      0.270141
     41 N4          0.0960   -2.1500    1.2920 n         1 MOL     -0.385139
     42 C13         0.8750   -1.0280    0.7410 c3        1 MOL     -0.011270
     43 C14         1.0530    0.1060    1.7560 c         1 MOL      0.400065
     44 O6          0.4060    1.1340    1.6740 o         1 MOL     -0.517081
     45 C15         0.3900   -0.7000   -0.6670 c3        1 MOL     -0.166908
     46 C16         0.2630   -1.8800   -1.5410 c         1 MOL      0.613353
     47 O7          1.2010   -2.7340   -1.6550 o         1 MOL     -0.744395
     48 O8         -0.6820   -2.0690   -2.3160 o         1 MOL     -0.744395
     49 H21         0.5200   -3.0480    1.0940 hn        1 MOL      0.233362
     50 H22         1.8690   -1.4640    0.5990 h1        1 MOL      0.075061
     51 H23         1.0930   -0.0560   -1.1890 hc        1 MOL      0.149580
     52 H24        -0.5660   -0.1870   -0.5620 hc        1 MOL      0.149580
     53 N5          2.0220   -0.0220    2.6960 n         1 MOL     -0.204052
     54 C17         3.0130   -1.1160    2.8190 c3        1 MOL     -0.059273
     55 C18         4.0630   -0.7550    3.8860 c         1 MOL      0.540378
     56 O9          3.9170    0.2930    4.4900 o         1 MOL     -0.537884
     57 H25         2.2000    0.7320    3.3470 hn        1 MOL      0.217677
     58 H26         3.4780   -1.2730    1.8390 h1        1 MOL      0.048429
     59 H27         2.5630   -2.0490    3.1640 h1        1 MOL      0.048429
     60 N6          5.0710   -1.5610    4.1830 n         1 MOL     -0.367830
     61 C19         5.4700   -2.8330    3.6480 c3        1 MOL      0.026645
     62 C20         6.4250   -2.5690    2.4130 c         1 MOL      0.378074
     63 O10         7.2300   -1.5890    2.4000 o         1 MOL     -0.429929
     64 C21         6.1690   -3.6470    4.6890 c3        1 MOL     -0.127455
     65 C22         7.2230   -2.9300    5.4590 c         1 MOL      0.701848
     66 O11         8.4900   -3.0700    5.2990 o         1 MOL     -0.670833
     67 O12         6.8150   -2.1880    6.4070 o         1 MOL     -0.670833
     68 H28         5.6360   -1.3390    4.9830 hn        1 MOL      0.247917
     69 H29         4.5970   -3.4090    3.3500 h1        1 MOL      0.034848
     70 H30         6.5750   -4.5220    4.1650 hc        1 MOL      0.011534
     71 H31         5.4200   -3.9610    5.4200 hc        1 MOL      0.011534
     72 N7          6.3970   -3.3940    1.4030 n         1 MOL     -0.167199
     73 C23         7.2430   -3.3560    0.1920 c3        1 MOL     -0.357745
     74 C24         7.0040   -2.0680   -0.6690 c         1 MOL      0.608001
     75 O13         7.9390   -1.5670   -1.2520 o         1 MOL     -0.540007
     76 H32         5.5960   -4.0030    1.4610 hn        1 MOL      0.181104
     77 H33         7.0000   -4.2280   -0.4130 h1        1 MOL      0.163124
     78 H34         8.2890   -3.4490    0.4780 h1        1 MOL      0.163124
     79 N8          5.7960   -1.5610   -0.7540 n         1 MOL     -0.443389
     80 C25         5.4520   -0.3890   -1.6270 c3        1 MOL      0.061266
     81 C26         5.2890    0.9270   -0.8870 c         1 MOL      0.668477
     82 O14         4.8310    0.9820    0.2500 o         1 MOL     -0.527373
     83 C27         4.1740   -0.6820   -2.4460 c3        1 MOL      0.610469
     84 C28         4.2170   -1.7670   -3.4970 c3        1 MOL     -0.287146
     85 O15         3.7020    0.4450   -3.0870 oh        1 MOL     -0.718706
     86 H35         5.0790   -2.1010   -0.2980 hn        1 MOL      0.240153
     87 H36         6.2280   -0.2530   -2.3890 h1        1 MOL      0.047908
     88 H37         3.3360   -0.9440   -1.7940 h1        1 MOL     -0.133967
     89 H38         2.8440    0.2350   -3.4680 ho        1 MOL      0.440155
     90 H39         5.0420   -1.5240   -4.1650 hc        1 MOL      0.042913
     91 H40         4.4490   -2.6290   -2.8720 hc        1 MOL      0.042913
     92 H41         3.2950   -1.7200   -4.0640 hc        1 MOL      0.042913
     93 N9          5.5930    2.1050   -1.5370 n         1 MOL     -0.642120
     94 C29         5.5230    3.4970   -1.0000 c3        1 MOL      0.110331
     95 C30         4.2750    4.3050   -1.3940 c         1 MOL      0.372790
     96 O16         4.1610    5.5310   -1.2810 o         1 MOL     -0.513672
     97 C31         6.8440    4.2600   -1.2000 c3        1 MOL      0.022288
     98 C32         7.1380    4.5590   -2.6850 c3        1 MOL      0.186045
     99 C33         7.9700    3.6060   -0.3700 c3        1 MOL     -0.249627
    100 C34         8.3870    5.3690   -3.0200 c3        1 MOL     -0.326002
    101 H42         5.7970    1.9530   -2.5150 hn        1 MOL      0.289182
    102 H43         5.3370    3.3340    0.0590 h1        1 MOL      0.125285
    103 H44         6.6770    5.2630   -0.7980 hc        1 MOL      0.031503
    104 H45         6.2350    5.0010   -3.0850 hc        1 MOL     -0.008764
    105 H46         7.1790    3.7170   -3.3810 hc        1 MOL     -0.008764
    106 H47         8.8530    4.2340   -0.4790 hc        1 MOL      0.078792
    107 H48         7.6480    3.5200    0.6660 hc        1 MOL      0.078792
    108 H49         8.3740    2.6870   -0.7760 hc        1 MOL      0.078792
    109 H50         8.3410    5.7370   -4.0430 hc        1 MOL      0.076181
    110 H51         8.4840    6.1800   -2.2990 hc        1 MOL      0.076181
    111 H52         9.2560    4.7270   -2.8620 hc        1 MOL      0.076181
    112 N10         3.2420    3.5700   -1.9090 n         1 MOL     -0.260979
    113 C35         1.8900    4.0990   -2.2040 c3        1 MOL     -0.101261
    114 C36         0.7710    3.2260   -1.6960 c         1 MOL      0.776105
    115 O17         0.5940    2.1320   -2.1980 o         1 MOL     -0.533782
    116 C37         1.7310    4.4800   -3.6640 c3        1 MOL      0.256409
    117 C38         2.7670    5.5720   -4.0350 c3        1 MOL     -0.345222
    118 O18         0.3940    4.9890   -3.9110 oh        1 MOL     -0.595982
    119 H53         3.2970    2.5600   -1.9120 hn        1 MOL      0.155252
    120 H54         1.8700    5.0550   -1.6780 h1        1 MOL      0.089261
    121 H55         1.8690    3.5140   -4.1500 h1        1 MOL      0.023911
    122 H56         0.4700    5.7640   -4.4760 ho        1 MOL      0.393907
    123 H57         2.5230    5.9980   -5.0060 hc        1 MOL      0.100186
    124 H58         2.7090    6.4000   -3.3340 hc        1 MOL      0.100186
    125 H59         3.7820    5.1700   -4.0600 hc        1 MOL      0.100186
    126 N11        -0.1280    3.8140   -0.8670 n         1 MOL     -0.652488
    127 C39        -1.2200    3.0540   -0.2790 c3        1 MOL      0.052059
    128 C40        -2.4060    3.0230   -1.2400 c         1 MOL      0.692118
    129 O19        -2.5730    3.9500   -2.0700 o         1 MOL     -0.564573
    130 C41        -1.7070    3.7340    1.0440 c3        1 MOL      0.461006
    131 C42        -2.0840    5.2210    1.0260 c3        1 MOL     -0.422503
    132 O20        -0.6360    3.6760    1.9800 oh        1 MOL     -0.683902
    133 H60        -0.0810    4.7920   -0.6200 hn        1 MOL      0.320545
    134 H61        -0.9140    2.0380   -0.0150 h1        1 MOL     -0.021565
    135 H62        -2.5560    3.0980    1.3110 h1        1 MOL     -0.036651
    136 H63        -0.2810    2.7820    1.9700 ho        1 MOL      0.390488
    137 H64        -2.7720    5.4600    0.2120 hc        1 MOL      0.109126
    138 H65        -2.5210    5.5960    1.9570 hc        1 MOL      0.109126
    139 H66        -1.2410    5.8270    0.7000 hc        1 MOL      0.109126
    140 N12        -3.1640    1.9150   -1.1970 n         1 MOL     -0.410592
    141 C43        -4.3580    1.7690   -2.0240 c3        1 MOL      0.041093
    142 C44        -4.7930    0.3410   -2.3750 c         1 MOL      0.588830
    143 O21        -5.2820    0.1770   -3.4940 o         1 MOL     -0.585788
    144 C45        -5.5530    2.5330   -1.4460 c3        1 MOL     -0.072746
    145 C46        -5.3970    3.7470   -0.5620 c3        1 MOL      0.054778
    146 C47        -6.6410    4.5490   -0.2390 c3        1 MOL      0.034608
    147 C48        -6.4060    5.6740    0.7780 c3        1 MOL      0.019611
    148 N13        -7.6170    6.4430    1.1000 n4        1 MOL     -0.273501
    149 H67        -2.9690    1.2900   -0.4320 hn        1 MOL      0.006900
    150 H68        -4.1760    2.2600   -2.9770 h1        1 MOL      0.091473
    151 H69        -6.0700    1.8260   -0.7850 hc        1 MOL      0.025933
    152 H70        -6.2440    2.8090   -2.2500 hc        1 MOL      0.025933
    153 H71        -4.6170    4.4360   -0.8990 hc        1 MOL     -0.029915
    154 H72        -4.9730    3.4680    0.3990 hc        1 MOL     -0.029915
    155 H73        -7.5170    3.9760    0.0720 hc        1 MOL      0.023739
    156 H74        -7.0500    4.9770   -1.1550 hc        1 MOL      0.023739
    157 H75        -5.7350    6.4500    0.4340 hx        1 MOL      0.059393
    158 H76        -6.0820    5.2880    1.7490 hx        1 MOL      0.059393
    159 H77        -8.1320    6.5240    0.2280 hn        1 MOL      0.294357
    160 H78        -8.2300    6.0100    1.7810 hn        1 MOL      0.294357
    161 H79        -7.4270    7.3580    1.4850 hn        1 MOL      0.294357
    162 N14        -4.4460   -0.7130   -1.5720 n         1 MOL     -0.310843
    163 C49        -4.7000   -2.1400   -1.9070 c3        1 MOL     -0.365553
    164 C50        -6.1780   -2.4430   -1.8420 c         1 MOL      0.501292
    165 O22        -6.9550   -2.0900   -0.9860 o         1 MOL     -0.470992
    166 C51        -3.8620   -3.0790   -0.9380 c3        1 MOL      0.273695
    167 C52        -3.8590   -4.5590   -1.2780 c3        1 MOL     -0.140064
    168 C53        -3.5120   -4.7410   -2.7330 c         1 MOL      0.522929
    169 O23        -4.4300   -5.0470   -3.5490 o         1 MOL     -0.699262
    170 O24        -2.3970   -4.5720   -3.1580 o         1 MOL     -0.699262
    171 H80        -4.1400   -0.5440   -0.6240 hn        1 MOL      0.316030
    172 H81        -4.2430   -2.2780   -2.8930 h1        1 MOL      0.231972
    173 H82        -4.1350   -3.1010    0.1180 hc        1 MOL     -0.026926
    174 H83        -2.8460   -2.6890   -1.0270 hc        1 MOL     -0.026926
    175 H84        -4.7930   -4.9890   -0.9320 hc        1 MOL      0.055704
    176 H85        -3.0740   -5.0610   -0.7100 hc        1 MOL      0.055704
    177 N15        -6.5750   -3.1560   -2.9410 n         1 MOL     -0.246822
    178 C54        -7.9420   -3.6900   -3.0340 c3        1 MOL     -0.140075
    179 H86        -7.9150   -4.6790   -3.4920 h1        1 MOL      0.075076
    180 H87        -8.3730   -3.7640   -2.0350 h1        1 MOL      0.075076
    181 H88        -8.5520   -3.0230   -3.6450 h1        1 MOL      0.075076
    182 H89        -5.8980   -3.3250   -3.6770 hn        1 MOL      0.263912
    183 Ca1         0.0240   -4.2660   -3.4390 Ca        1 MOL      1.719513
    184 O25        -1.5340   -4.3510   -5.6340 oh        1 MOL     -0.846040
    185 H90        -2.3420   -4.0910   -5.1890 ho        1 MOL      0.428580
    186 H91        -1.6950   -5.2430   -5.9310 ho        1 MOL      0.428580
    187 O26         2.3830   -5.8290   -2.5050 oh        1 MOL     -0.846040
    188 H92         2.3380   -5.9470   -1.5640 ho        1 MOL      0.428580
    189 H93         3.2880   -6.0450   -2.7440 ho        1 MOL      0.428580
    190 O27         1.8820   -4.8220   -5.3750 oh        1 MOL     -0.846040
    191 H94         2.6030   -5.4480   -5.3290 ho        1 MOL      0.428580
    192 H95         2.0390   -4.3240   -6.1810 ho        1 MOL      0.428580
    193 O28         0.6600   -2.1940   -4.9670 oh        1 MOL     -0.846040
    194 H96         0.0710   -2.0560   -5.7110 ho        1 MOL      0.428580
    195 H97         1.1010   -1.3530   -4.8440 ho        1 MOL      0.428580
@<TRIPOS>BOND
     1    1    2 1   
     2    1    4 1   
     3    1    5 1   
     4    1    6 1   
     5    2    3 2   
     6    2    7 1   
     7    7    8 1   
     8    7   15 1   
     9    8    9 1   
    10    8   11 1   
    11    8   16 1   
    12    9   10 2   
    13    9   19 1   
    14   11   12 1   
    15   11   17 1   
    16   11   18 1   
    17   12   13 1   
    18   12   14 1   
    19   19   20 1   
    20   19   28 1   
    21   20   21 1   
    22   20   23 1   
    23   20   29 1   
    24   21   22 2   
    25   21   41 1   
    26   23   24 1   
    27   23   30 1   
    28   23   31 1   
    29   24   25 1   
    30   24   32 1   
    31   24   33 1   
    32   25   26 1   
    33   25   34 1   
    34   25   35 1   
    35   26   27 1   
    36   26   36 1   
    37   26   37 1   
    38   27   38 1   
    39   27   39 1   
    40   27   40 1   
    41   41   42 1   
    42   41   49 1   
    43   42   43 1   
    44   42   45 1   
    45   42   50 1   
    46   43   44 2   
    47   43   53 1   
    48   45   46 1   
    49   45   51 1   
    50   45   52 1   
    51   46   47 1   
    52   46   48 1   
    53   53   54 1   
    54   53   57 1   
    55   54   55 1   
    56   54   58 1   
    57   54   59 1   
    58   55   56 2   
    59   55   60 1   
    60   60   61 1   
    61   60   68 1   
    62   61   62 1   
    63   61   64 1   
    64   61   69 1   
    65   62   63 2   
    66   62   72 1   
    67   64   65 1   
    68   64   70 1   
    69   64   71 1   
    70   65   66 1   
    71   65   67 1   
    72   72   73 1   
    73   72   76 1   
    74   73   74 1   
    75   73   77 1   
    76   73   78 1   
    77   74   75 2   
    78   74   79 1   
    79   79   80 1   
    80   79   86 1   
    81   80   81 1   
    82   80   83 1   
    83   80   87 1   
    84   81   82 2   
    85   81   93 1   
    86   83   84 1   
    87   83   85 1   
    88   83   88 1   
    89   84   90 1   
    90   84   91 1   
    91   84   92 1   
    92   85   89 1   
    93   93   94 1   
    94   93  101 1   
    95   94   95 1   
    96   94   97 1   
    97   94  102 1   
    98   95   96 2   
    99   95  112 1   
   100   97   98 1   
   101   97   99 1   
   102   97  103 1   
   103   98  100 1   
   104   98  104 1   
   105   98  105 1   
   106   99  106 1   
   107   99  107 1   
   108   99  108 1   
   109  100  109 1   
   110  100  110 1   
   111  100  111 1   
   112  112  113 1   
   113  112  119 1   
   114  113  114 1   
   115  113  116 1   
   116  113  120 1   
   117  114  115 2   
   118  114  126 1   
   119  116  117 1   
   120  116  118 1   
   121  116  121 1   
   122  117  123 1   
   123  117  124 1   
   124  117  125 1   
   125  118  122 1   
   126  126  127 1   
   127  126  133 1   
   128  127  128 1   
   129  127  130 1   
   130  127  134 1   
   131  128  129 2   
   132  128  140 1   
   133  130  131 1   
   134  130  132 1   
   135  130  135 1   
   136  131  137 1   
   137  131  138 1   
   138  131  139 1   
   139  132  136 1   
   140  140  141 1   
   141  140  149 1   
   142  141  142 1   
   143  141  144 1   
   144  141  150 1   
   145  142  143 2   
   146  142  162 1   
   147  144  145 1   
   148  144  151 1   
   149  144  152 1   
   150  145  146 1   
   151  145  153 1   
   152  145  154 1   
   153  146  147 1   
   154  146  155 1   
   155  146  156 1   
   156  147  148 1   
   157  147  157 1   
   158  147  158 1   
   159  148  159 1   
   160  148  160 1   
   161  148  161 1   
   162  162  163 1   
   163  162  171 1   
   164  163  164 1   
   165  163  166 1   
   166  163  172 1   
   167  164  165 2   
   168  164  177 1   
   169  166  167 1   
   170  166  173 1   
   171  166  174 1   
   172  167  168 1   
   173  167  175 1   
   174  167  176 1   
   175  168  169 1   
   176  168  170 1   
   177  177  178 1   
   178  177  182 1   
   179  178  179 1   
   180  178  180 1   
   181  178  181 1   
   182  184  185 1   
   183  184  186 1   
   184  187  188 1   
   185  187  189 1   
   186  190  191 1   
   187  190  192 1   
   188  193  194 1   
   189  193  195 1   
@<TRIPOS>SUBSTRUCTURE
     1 MOL         1 TEMP              0 ****  ****    0 ROOT
