@<TRIPOS>MOLECULE
MOL
  192   187     1     0     0
SMALL
resp


@<TRIPOS>ATOM
      1 C1        -11.7920   -5.4750   -2.6010 c3        1 MOL     -0.317608
      2 C2        -11.5630   -4.0250   -2.0330 c         1 MOL      0.624087
      3 O1        -12.3280   -3.0760   -2.3300 o         1 MOL     -0.592646
      4 H1        -12.1060   -5.4110   -3.6430 hc        1 MOL      0.087127
      5 H2        -10.8630   -6.0420   -2.5360 hc        1 MOL      0.087127
      6 H3        -12.5650   -5.9760   -2.0190 hc        1 MOL      0.087127
      7 N1        -10.5790   -3.8620   -1.1870 n         1 MOL     -0.298887
      8 C3        -10.4800   -2.6040   -0.3800 c3        1 MOL     -0.131849
      9 C4         -9.0460   -1.9780   -0.5020 c         1 MOL      0.479458
     10 O2         -8.1250   -2.7380   -0.5650 o         1 MOL     -0.595617
     11 C5        -10.8460   -2.9040    1.0820 c3        1 MOL     -0.113919
     12 C6        -10.2320   -4.1350    1.7480 c         1 MOL      0.725484
     13 O3         -9.5430   -4.9070    1.0200 o         1 MOL     -0.685976
     14 O4        -10.5270   -4.4970    2.9170 o         1 MOL     -0.685976
     15 H4         -9.9370   -4.6070   -0.9460 hn        1 MOL      0.105166
     16 H5        -11.1880   -1.8770   -0.7760 h1        1 MOL      0.094472
     17 H6        -11.9080   -3.1360    1.0270 hc        1 MOL      0.067050
     18 H7        -10.6350   -2.0010    1.6520 hc        1 MOL      0.067050
     19 N2         -8.9720   -0.6370   -0.6630 n         1 MOL     -0.239438
     20 C7         -7.7590    0.1010   -1.1030 c3        1 MOL     -0.140507
     21 C8         -6.8600    0.3940    0.1640 c         1 MOL      0.622003
     22 O5         -7.3280    0.9420    1.1180 o         1 MOL     -0.554256
     23 C9         -8.2260    1.4540   -1.7060 c3        1 MOL     -0.359342
     24 C10        -7.0210    2.1370   -2.3950 c3        1 MOL      0.021691
     25 C11        -7.4530    3.4650   -2.9820 c3        1 MOL     -0.279280
     26 C12        -6.2800    4.3260   -3.4990 c3        1 MOL     -0.005325
     27 N3         -5.5170    4.8000   -2.2730 n4        1 MOL     -0.333293
     28 H8         -9.8880   -0.2020   -0.7050 hn        1 MOL      0.271896
     29 H9         -7.1130   -0.5460   -1.6940 h1        1 MOL      0.077348
     30 H10        -8.7270    2.1280   -1.0210 hc        1 MOL      0.140980
     31 H11        -9.0510    1.2310   -2.3840 hc        1 MOL      0.140980
     32 H12        -6.7640    1.4280   -3.1800 hc        1 MOL      0.073879
     33 H13        -6.1400    2.2410   -1.7780 hc        1 MOL      0.073879
     34 H14        -8.0380    4.0470   -2.2610 hc        1 MOL      0.125250
     35 H15        -8.0670    3.2350   -3.8490 hc        1 MOL      0.125250
     36 H16        -6.6240    5.1790   -4.0850 hx        1 MOL      0.112500
     37 H17        -5.5630    3.7210   -4.0540 hx        1 MOL      0.112500
     38 H18        -4.5600    5.0470   -2.4880 hn        1 MOL      0.315517
     39 H19        -6.0300    5.5530   -1.8250 hn        1 MOL      0.315517
     40 H20        -5.4940    4.0600   -1.5900 hn        1 MOL      0.315517
     41 N4         -5.6500   -0.1730    0.2340 n         1 MOL     -0.205805
     42 C13        -4.7090   -0.1510    1.3960 c3        1 MOL     -0.032763
     43 C14        -3.2690   -0.3320    0.8540 c         1 MOL      0.225127
     44 O6         -3.0670   -0.9340   -0.2140 o         1 MOL     -0.418815
     45 C15        -5.0300   -1.3130    2.3880 c3        1 MOL      0.462836
     46 C16        -5.7140   -2.5160    1.7840 c         1 MOL      0.175935
     47 O7         -6.8990   -2.7800    2.0700 o         1 MOL     -0.566930
     48 O8         -5.0670   -3.1950    0.9930 o         1 MOL     -0.566930
     49 H21        -5.3450   -0.5850   -0.6390 hn        1 MOL      0.151648
     50 H22        -4.8430    0.8220    1.8790 h1        1 MOL      0.061759
     51 H23        -5.6830   -0.9680    3.1830 hc        1 MOL     -0.080451
     52 H24        -4.1280   -1.6560    2.9010 hc        1 MOL     -0.080451
     53 N5         -2.2220    0.0890    1.5630 n         1 MOL     -0.240902
     54 C17        -2.0990    0.9430    2.7290 c3        1 MOL     -0.035488
     55 C18        -2.5060    2.4230    2.6380 c         1 MOL      0.516845
     56 O9         -2.9800    2.8560    1.5920 o         1 MOL     -0.491485
     57 H25        -1.4030   -0.0210    0.9860 hn        1 MOL      0.278829
     58 H26        -1.0560    0.9010    3.0600 h1        1 MOL      0.057473
     59 H27        -2.6930    0.4950    3.5310 h1        1 MOL      0.057473
     60 N6         -2.2420    3.1570    3.7060 n         1 MOL     -0.284825
     61 C19        -2.5560    4.5680    3.7740 c3        1 MOL     -0.124823
     62 C20        -1.7990    5.3040    2.6040 c         1 MOL      0.563743
     63 O10        -0.6150    5.0840    2.3270 o         1 MOL     -0.502251
     64 C21        -2.1240    5.0470    5.1330 c3        1 MOL     -0.346191
     65 C22        -2.4030    6.5720    5.3290 c         1 MOL      0.778125
     66 O11        -1.4940    7.3640    5.2480 o         1 MOL     -0.699331
     67 O12        -3.5320    6.9820    5.5260 o         1 MOL     -0.699331
     68 H28        -1.7600    2.7070    4.4720 hn        1 MOL      0.267831
     69 H29        -3.6380    4.6840    3.6570 h1        1 MOL      0.101294
     70 H30        -1.0980    4.8500    5.4550 hc        1 MOL      0.095380
     71 H31        -2.7520    4.5500    5.8650 hc        1 MOL      0.095380
     72 N7         -2.5160    6.0450    1.7560 n         1 MOL     -0.325883
     73 C23        -1.8870    6.7520    0.5900 c3        1 MOL     -0.025874
     74 C24        -1.4550    5.8460   -0.6240 c         1 MOL      0.432876
     75 O13        -1.1530    6.4110   -1.6870 o         1 MOL     -0.585061
     76 H32        -3.4050    6.4200    2.0470 hn        1 MOL      0.259819
     77 H33        -1.0550    7.4020    0.8650 h1        1 MOL      0.086850
     78 H34        -2.6560    7.3740    0.1360 h1        1 MOL      0.086850
     79 N8         -1.6420    4.5700   -0.5590 n         1 MOL      0.042032
     80 C25        -1.0780    3.6520   -1.5720 c3        1 MOL      0.029799
     81 C26        -0.4930    2.3170   -1.0610 c         1 MOL      0.454392
     82 O14        -0.4540    2.0140    0.1260 o         1 MOL     -0.383971
     83 C27        -2.2420    3.2920   -2.4950 c3        1 MOL      0.171973
     84 C28        -3.3460    2.3660   -1.9290 c3        1 MOL     -0.355498
     85 O15        -3.0160    4.3480   -2.9510 oh        1 MOL     -0.650606
     86 H35        -1.9300    4.1620    0.3270 hn        1 MOL     -0.147072
     87 H36        -0.3460    4.2270   -2.1250 h1        1 MOL      0.062816
     88 H37        -1.6960    2.9010   -3.3450 h1        1 MOL      0.036438
     89 H38        -2.4370    4.7420   -3.6130 ho        1 MOL      0.426866
     90 H39        -2.8710    1.3950   -1.8360 hc        1 MOL      0.090360
     91 H40        -3.6500    2.7770   -0.9640 hc        1 MOL      0.090360
     92 H41        -4.1710    2.2100   -2.6240 hc        1 MOL      0.090360
     93 N9          0.0120    1.4190   -1.8710 n         1 MOL     -0.326660
     94 C29         0.3070    0.0450   -1.5480 c3        1 MOL     -0.311319
     95 C30         1.6640   -0.0830   -0.8480 c         1 MOL      0.631443
     96 O16         1.7720   -0.9070    0.0920 o         1 MOL     -0.525496
     97 C31         0.1550   -0.8340   -2.8860 c3        1 MOL      0.226198
     98 C32        -1.2680   -0.8590   -3.5970 c3        1 MOL      0.021315
     99 C33         0.4120   -2.2680   -2.5120 c3        1 MOL     -0.501913
    100 C34        -1.4010   -1.6850   -4.9060 c3        1 MOL     -0.362803
    101 H42        -0.0290    1.6610   -2.8600 hn        1 MOL      0.214915
    102 H43        -0.5130   -0.2770   -0.9060 h1        1 MOL      0.105889
    103 H44         0.9350   -0.5190   -3.5880 hc        1 MOL      0.015587
    104 H45        -1.4270    0.1780   -3.8810 hc        1 MOL      0.033473
    105 H46        -2.0350   -0.9620   -2.8170 hc        1 MOL      0.033473
    106 H47         0.4260   -2.9060   -3.3930 hc        1 MOL      0.145437
    107 H48         1.4570   -2.2660   -2.1940 hc        1 MOL      0.145437
    108 H49        -0.2970   -2.6940   -1.8110 hc        1 MOL      0.145437
    109 H50        -2.3830   -1.4820   -5.3250 hc        1 MOL      0.095173
    110 H51        -0.5500   -1.4700   -5.5570 hc        1 MOL      0.095173
    111 H52        -1.3210   -2.7600   -4.7790 hc        1 MOL      0.095173
    112 N10         2.5650    0.8340   -1.1200 n         1 MOL     -0.376438
    113 C35         3.9690    1.0100   -0.7270 c3        1 MOL     -0.056390
    114 C36         4.9450    1.5080   -1.8240 c         1 MOL      0.576101
    115 O17         4.5030    1.9530   -2.8560 o         1 MOL     -0.522511
    116 C37         4.0300    2.0910    0.4740 c3        1 MOL      0.425702
    117 C38         3.6650    3.4960    0.2450 c3        1 MOL     -0.355537
    118 O18         3.3230    1.5910    1.5220 oh        1 MOL     -0.606804
    119 H53         2.2830    1.5880   -1.7420 hn        1 MOL      0.211484
    120 H54         4.3460    0.0710   -0.3100 h1        1 MOL      0.089810
    121 H55         5.0140    2.1760    0.9360 h1        1 MOL      0.021946
    122 H56         2.5090    2.1000    1.6190 ho        1 MOL      0.389367
    123 H57         3.9520    4.1450    1.0730 hc        1 MOL      0.097129
    124 H58         4.1610    3.8730   -0.6540 hc        1 MOL      0.097129
    125 H59         2.5700    3.5530    0.1620 hc        1 MOL      0.097129
    126 N11         6.2130    1.5510   -1.3840 n         1 MOL     -0.564656
    127 C39         7.2930    2.0990   -2.2280 c3        1 MOL      0.118927
    128 C40         8.4530    1.0690   -2.2770 c         1 MOL      0.529748
    129 O19         8.9390    0.6310   -3.3480 o         1 MOL     -0.564730
    130 C41         7.7770    3.5300   -1.7450 c3        1 MOL      0.159495
    131 C42         9.0770    3.9440   -2.4190 c3        1 MOL     -0.387456
    132 O20         8.0770    3.4800   -0.3580 oh        1 MOL     -0.632152
    133 H60         6.3160    1.2380   -0.4280 hn        1 MOL      0.282473
    134 H61         6.9520    2.2040   -3.2580 h1        1 MOL      0.084939
    135 H62         6.9610    4.2500   -1.8500 h1        1 MOL      0.069989
    136 H63         8.2850    4.3750   -0.0840 ho        1 MOL      0.423207
    137 H64         8.9620    4.1120   -3.4870 hc        1 MOL      0.109789
    138 H65         9.4280    4.8720   -1.9630 hc        1 MOL      0.109789
    139 H66         9.8290    3.1970   -2.1390 hc        1 MOL      0.109789
    140 N12         8.7840    0.5290   -1.1410 n         1 MOL     -0.304255
    141 C43         9.7770   -0.5690   -0.9710 c3        1 MOL      0.001683
    142 C44         9.4010   -1.4740    0.2680 c         1 MOL      0.364654
    143 O21         8.7980   -0.9520    1.1970 o         1 MOL     -0.483727
    144 C45        11.0640    0.2620   -0.7670 c3        1 MOL     -0.459439
    145 C46        12.2970   -0.5200   -0.6110 c3        1 MOL      0.477737
    146 C47        13.5370    0.3590   -0.4220 c3        1 MOL     -0.133420
    147 C48        14.7020   -0.5060   -0.0960 c3        1 MOL      0.185715
    148 N13        16.0610    0.1040   -0.4610 n4        1 MOL     -0.315215
    149 H67         8.2920    0.7170   -0.2840 hn        1 MOL      0.250397
    150 H68         9.7650   -1.1830   -1.8730 h1        1 MOL      0.096283
    151 H69        10.9860    0.8660    0.1430 hc        1 MOL      0.150094
    152 H70        11.1330    0.9410   -1.6200 hc        1 MOL      0.150094
    153 H71        12.5690   -1.1910   -1.4270 hc        1 MOL     -0.107069
    154 H72        12.2060   -1.2690    0.1710 hc        1 MOL     -0.107069
    155 H73        13.3400    1.0010    0.4350 hc        1 MOL      0.019472
    156 H74        13.7010    0.9510   -1.3140 hc        1 MOL      0.019472
    157 H75        14.6270   -1.4490   -0.6250 hx        1 MOL      0.047826
    158 H76        14.7390   -0.7830    0.9590 hx        1 MOL      0.047826
    159 H77        16.2340    0.8840    0.1610 hn        1 MOL      0.256984
    160 H78        16.7900   -0.5800   -0.3960 hn        1 MOL      0.256984
    161 H79        16.0990    0.4790   -1.4000 hn        1 MOL      0.256984
    162 N14         9.7670   -2.7480    0.4630 n         1 MOL     -0.119051
    163 C49         9.5500   -3.6020    1.6720 c3        1 MOL      0.016000
    164 C50         8.0630   -3.8340    1.8620 c         1 MOL      0.413481
    165 O22         7.7050   -3.8370    3.0320 o         1 MOL     -0.547765
    166 C51        10.3340   -4.9130    1.6470 c3        1 MOL      0.007298
    167 C52        11.8280   -4.7790    1.5940 c3        1 MOL     -0.481963
    168 C53        12.5070   -6.1770    1.6440 c         1 MOL      0.739779
    169 O23        13.0550   -6.5220    2.6950 o         1 MOL     -0.681488
    170 O24        12.5360   -6.9160    0.6220 o         1 MOL     -0.681488
    171 H80        10.3530   -3.1470   -0.2530 hn        1 MOL      0.179065
    172 H81         9.9800   -2.9780    2.4630 h1        1 MOL      0.071529
    173 H82         9.8920   -5.5300    0.8740 hc        1 MOL      0.090175
    174 H83        10.1220   -5.4900    2.5560 hc        1 MOL      0.090175
    175 H84        12.1750   -4.3790    2.5470 hc        1 MOL      0.105318
    176 H85        12.1760   -4.1390    0.7820 hc        1 MOL      0.105318
    177 N15         7.1490   -4.1470    0.9940 n         1 MOL     -0.332231
    178 C54         7.4200   -4.6590   -0.4050 c3        1 MOL     -0.031852
    179 H86         6.4750   -4.8760   -0.9020 h1        1 MOL      0.035384
    180 H87         7.9630   -3.9000   -0.9710 h1        1 MOL      0.035384
    181 H88         8.0190   -5.5690   -0.3500 h1        1 MOL      0.035384
    182 H89         6.2030   -3.9920    1.3030 hn        1 MOL      0.296037
    183 Ca1        -6.8760   -4.9240    0.2910 Ca        1 MOL      1.772637
    184 O25        -6.9640   -6.1140    2.7680 oh        1 MOL     -0.865499
    185 H90        -7.5460   -6.0610    3.5230 ho        1 MOL      0.426414
    186 H91        -6.0930   -6.2790    3.1460 ho        1 MOL      0.426414
    187 O26        -5.3410   -3.8570   -1.8240 oh        1 MOL     -0.865499
    188 H92        -5.9660   -3.8230   -2.5400 ho        1 MOL      0.426414
    189 H93        -4.8040   -3.0770   -1.9420 ho        1 MOL      0.426414
    190 O27        -4.5140   -6.1830    0.2840 oh        1 MOL     -0.865499
    191 H94        -4.3210   -7.0710    0.0030 ho        1 MOL      0.426414
    192 H95        -3.8640   -6.0100    0.9680 ho        1 MOL      0.426414
@<TRIPOS>BOND
     1    1    2 1   
     2    1    4 1   
     3    1    5 1   
     4    1    6 1   
     5    2    3 2   
     6    2    7 1   
     7    7    8 1   
     8    7   15 1   
     9    8    9 1   
    10    8   11 1   
    11    8   16 1   
    12    9   10 2   
    13    9   19 1   
    14   11   12 1   
    15   11   17 1   
    16   11   18 1   
    17   12   13 1   
    18   12   14 1   
    19   19   20 1   
    20   19   28 1   
    21   20   21 1   
    22   20   23 1   
    23   20   29 1   
    24   21   22 2   
    25   21   41 1   
    26   23   24 1   
    27   23   30 1   
    28   23   31 1   
    29   24   25 1   
    30   24   32 1   
    31   24   33 1   
    32   25   26 1   
    33   25   34 1   
    34   25   35 1   
    35   26   27 1   
    36   26   36 1   
    37   26   37 1   
    38   27   38 1   
    39   27   39 1   
    40   27   40 1   
    41   41   42 1   
    42   41   49 1   
    43   42   43 1   
    44   42   45 1   
    45   42   50 1   
    46   43   44 2   
    47   43   53 1   
    48   45   46 1   
    49   45   51 1   
    50   45   52 1   
    51   46   47 1   
    52   46   48 1   
    53   53   54 1   
    54   53   57 1   
    55   54   55 1   
    56   54   58 1   
    57   54   59 1   
    58   55   56 2   
    59   55   60 1   
    60   60   61 1   
    61   60   68 1   
    62   61   62 1   
    63   61   64 1   
    64   61   69 1   
    65   62   63 2   
    66   62   72 1   
    67   64   65 1   
    68   64   70 1   
    69   64   71 1   
    70   65   66 1   
    71   65   67 1   
    72   72   73 1   
    73   72   76 1   
    74   73   74 1   
    75   73   77 1   
    76   73   78 1   
    77   74   75 2   
    78   74   79 1   
    79   79   80 1   
    80   79   86 1   
    81   80   81 1   
    82   80   83 1   
    83   80   87 1   
    84   81   82 2   
    85   81   93 1   
    86   83   84 1   
    87   83   85 1   
    88   83   88 1   
    89   84   90 1   
    90   84   91 1   
    91   84   92 1   
    92   85   89 1   
    93   93   94 1   
    94   93  101 1   
    95   94   95 1   
    96   94   97 1   
    97   94  102 1   
    98   95   96 2   
    99   95  112 1   
   100   97   98 1   
   101   97   99 1   
   102   97  103 1   
   103   98  100 1   
   104   98  104 1   
   105   98  105 1   
   106   99  106 1   
   107   99  107 1   
   108   99  108 1   
   109  100  109 1   
   110  100  110 1   
   111  100  111 1   
   112  112  113 1   
   113  112  119 1   
   114  113  114 1   
   115  113  116 1   
   116  113  120 1   
   117  114  115 2   
   118  114  126 1   
   119  116  117 1   
   120  116  118 1   
   121  116  121 1   
   122  117  123 1   
   123  117  124 1   
   124  117  125 1   
   125  118  122 1   
   126  126  127 1   
   127  126  133 1   
   128  127  128 1   
   129  127  130 1   
   130  127  134 1   
   131  128  129 2   
   132  128  140 1   
   133  130  131 1   
   134  130  132 1   
   135  130  135 1   
   136  131  137 1   
   137  131  138 1   
   138  131  139 1   
   139  132  136 1   
   140  140  141 1   
   141  140  149 1   
   142  141  142 1   
   143  141  144 1   
   144  141  150 1   
   145  142  143 2   
   146  142  162 1   
   147  144  145 1   
   148  144  151 1   
   149  144  152 1   
   150  145  146 1   
   151  145  153 1   
   152  145  154 1   
   153  146  147 1   
   154  146  155 1   
   155  146  156 1   
   156  147  148 1   
   157  147  157 1   
   158  147  158 1   
   159  148  159 1   
   160  148  160 1   
   161  148  161 1   
   162  162  163 1   
   163  162  171 1   
   164  163  164 1   
   165  163  166 1   
   166  163  172 1   
   167  164  165 2   
   168  164  177 1   
   169  166  167 1   
   170  166  173 1   
   171  166  174 1   
   172  167  168 1   
   173  167  175 1   
   174  167  176 1   
   175  168  169 1   
   176  168  170 1   
   177  177  178 1   
   178  177  182 1   
   179  178  179 1   
   180  178  180 1   
   181  178  181 1   
   182  184  185 1   
   183  184  186 1   
   184  187  188 1   
   185  187  189 1   
   186  190  191 1   
   187  190  192 1   
@<TRIPOS>SUBSTRUCTURE
     1 MOL         1 TEMP              0 ****  ****    0 ROOT
