@<TRIPOS>MOLECULE
MOL
  192   187     1     0     0
SMALL
resp


@<TRIPOS>ATOM
      1 C1          9.9060    0.3920    1.5540 c3        1 MOL     -0.517797
      2 C2          8.6310   -0.0930    0.8210 c         1 MOL      0.721646
      3 O1          7.6540   -0.3670    1.5200 o         1 MOL     -0.647575
      4 H1         10.6070    0.8050    0.8280 hc        1 MOL      0.134841
      5 H2          9.6390    1.1610    2.2790 hc        1 MOL      0.134841
      6 H3         10.3710   -0.4480    2.0690 hc        1 MOL      0.134841
      7 N1          8.7610   -0.3830   -0.5070 n         1 MOL     -0.560206
      8 C3          7.6350   -0.5600   -1.4140 c3        1 MOL      0.081500
      9 C4          6.9290   -1.8940   -1.3930 c         1 MOL      0.444580
     10 O2          6.8220   -2.6390   -2.3330 o         1 MOL     -0.443765
     11 C5          8.0710   -0.0070   -2.8080 c3        1 MOL     -0.437028
     12 C6          9.2960   -0.6900   -3.4700 c         1 MOL      0.771036
     13 O3         10.0340   -1.4330   -2.8280 o         1 MOL     -0.646011
     14 O4          9.5970   -0.4510   -4.6840 o         1 MOL     -0.646011
     15 H4          9.6840   -0.3820   -0.9300 hn        1 MOL      0.311293
     16 H5          6.8920    0.1910   -1.1380 h1        1 MOL      0.094743
     17 H6          8.3570    1.0340   -2.6870 hc        1 MOL      0.131060
     18 H7          7.1670   -0.1050   -3.4200 hc        1 MOL      0.131060
     19 N2          6.5080   -2.1700   -0.1750 n         1 MOL     -0.217385
     20 C7          5.9200   -3.4920    0.0870 c3        1 MOL      0.137668
     21 C8          4.3910   -3.6230   -0.3370 c         1 MOL      0.352278
     22 O5          4.1380   -4.5350   -1.1320 o         1 MOL     -0.497593
     23 C9          6.1090   -3.9610    1.5100 c3        1 MOL     -0.072543
     24 C10         7.5570   -4.0650    1.9530 c3        1 MOL      0.043724
     25 C11         7.8350   -4.2370    3.4260 c3        1 MOL     -0.100895
     26 C12         9.3080   -4.1780    3.6910 c3        1 MOL      0.222702
     27 N3          9.5450   -4.3870    5.1860 n4        1 MOL     -0.390310
     28 H8          6.6410   -1.4820    0.5480 hn        1 MOL      0.218852
     29 H9          6.4860   -4.1540   -0.5660 h1        1 MOL      0.046931
     30 H10         5.7130   -4.9770    1.5070 hc        1 MOL      0.015755
     31 H11         5.5190   -3.3670    2.2110 hc        1 MOL      0.015755
     32 H12         8.0570   -3.1730    1.5580 hc        1 MOL      0.018566
     33 H13         8.0320   -4.8460    1.3650 hc        1 MOL      0.018566
     34 H14         7.4990   -5.2410    3.6820 hc        1 MOL      0.032464
     35 H15         7.3940   -3.5260    4.1270 hc        1 MOL      0.032464
     36 H16         9.6820   -3.2280    3.3050 hx        1 MOL      0.028579
     37 H17         9.8900   -4.9330    3.1580 hx        1 MOL      0.028579
     38 H18        10.5240   -4.6150    5.2880 hn        1 MOL      0.281568
     39 H19         9.2670   -3.5450    5.6640 hn        1 MOL      0.281568
     40 H20         9.0170   -5.1450    5.5940 hn        1 MOL      0.281568
     41 N4          3.5540   -2.6530   -0.0680 n         1 MOL     -0.334931
     42 C13         3.7170   -1.4270    0.8490 c3        1 MOL     -0.059229
     43 C14         3.7760   -0.1650    0.0420 c         1 MOL      0.229652
     44 O6          3.7160   -0.1850   -1.1670 o         1 MOL     -0.346180
     45 C15         2.5610   -1.4300    1.7910 c3        1 MOL     -0.262014
     46 C16         1.1680   -1.4390    1.2190 c         1 MOL      1.083668
     47 O7          0.6910   -0.3900    0.8190 o         1 MOL     -0.868615
     48 O8          0.4620   -2.4640    1.2950 o         1 MOL     -0.868615
     49 H21         2.6210   -2.8950   -0.3780 hn        1 MOL      0.312220
     50 H22         4.6940   -1.4350    1.3440 h1        1 MOL      0.162281
     51 H23         2.6830   -0.5610    2.4430 hc        1 MOL      0.064825
     52 H24         2.6150   -2.1970    2.5770 hc        1 MOL      0.064825
     53 N5          4.0260    1.0050    0.6880 n         1 MOL     -0.451577
     54 C17         4.0640    2.3500    0.0270 c3        1 MOL      0.099468
     55 C18         2.7470    2.8640   -0.6280 c         1 MOL      0.386829
     56 O9          1.6800    2.2560   -0.4930 o         1 MOL     -0.399575
     57 H25         4.0760    1.0480    1.6940 hn        1 MOL      0.324342
     58 H26         4.8610    2.3850   -0.7080 h1        1 MOL      0.050494
     59 H27         4.3910    3.0950    0.7610 h1        1 MOL      0.050494
     60 N6          2.8740    4.0410   -1.2400 n         1 MOL     -0.396162
     61 C19         1.8030    4.7160   -1.9820 c3        1 MOL      0.034493
     62 C20         2.1700    6.2110   -2.2410 c         1 MOL      0.467585
     63 O10         3.2970    6.5430   -2.4840 o         1 MOL     -0.515407
     64 C21         1.6460    4.1880   -3.3740 c3        1 MOL     -0.217499
     65 C22         1.3760    2.7210   -3.3520 c         1 MOL      0.716870
     66 O11         0.1930    2.3960   -3.0230 o         1 MOL     -0.681594
     67 O12         2.2090    1.9540   -3.8670 o         1 MOL     -0.681594
     68 H28         3.7790    4.4720   -1.3470 hn        1 MOL      0.289813
     69 H29         0.9490    4.6740   -1.3100 h1        1 MOL      0.060797
     70 H30         2.5170    4.3460   -4.0140 hc        1 MOL      0.088484
     71 H31         0.8550    4.6870   -3.9260 hc        1 MOL      0.088484
     72 N7          1.2130    7.1750   -2.2380 n         1 MOL     -0.355530
     73 C23        -0.1810    7.0420   -2.0940 c3        1 MOL     -0.095062
     74 C24        -0.6490    6.6040   -0.7600 c         1 MOL      0.601534
     75 O13         0.0020    6.9020    0.2620 o         1 MOL     -0.527346
     76 H32         1.5590    8.1130   -2.3820 hn        1 MOL      0.297006
     77 H33        -0.5300    6.2640   -2.7700 h1        1 MOL      0.069965
     78 H34        -0.6980    7.9780   -2.3160 h1        1 MOL      0.069965
     79 N8         -1.7360    5.8170   -0.6930 n         1 MOL     -0.439557
     80 C25        -2.1510    5.2970    0.5970 c3        1 MOL     -0.412259
     81 C26        -1.4480    3.9860    1.0110 c         1 MOL      1.112510
     82 O14        -1.0430    3.2290    0.1090 o         1 MOL     -0.825292
     83 C27        -3.7060    5.1380    0.6070 c3        1 MOL      0.561720
     84 C28        -4.3220    3.9130   -0.0090 c3        1 MOL     -0.442939
     85 O15        -4.2970    6.3640    0.1320 oh        1 MOL     -0.671879
     86 H35        -2.2220    5.5760   -1.5490 hn        1 MOL      0.295000
     87 H36        -1.8550    6.0700    1.3010 h1        1 MOL      0.126416
     88 H37        -4.0510    4.9570    1.6240 h1        1 MOL     -0.023215
     89 H38        -3.7420    6.9010   -0.4350 ho        1 MOL      0.401468
     90 H39        -5.3840    4.1700   -0.0910 hc        1 MOL      0.114462
     91 H40        -3.9070    3.6270   -0.9780 hc        1 MOL      0.114462
     92 H41        -4.2940    3.0510    0.6710 hc        1 MOL      0.114462
     93 N9         -1.4140    3.7390    2.3160 n         1 MOL     -0.958917
     94 C29        -0.8770    2.5220    2.8400 c3        1 MOL      0.793049
     95 C30        -1.5520    1.2210    2.3980 c         1 MOL      0.015360
     96 O16        -2.0620    1.0310    1.2540 o         1 MOL     -0.315337
     97 C31         0.6820    2.5190    2.7670 c3        1 MOL      0.242833
     98 C32         1.3550    3.8780    2.8370 c3        1 MOL     -0.246548
     99 C33         1.1630    1.7070    3.9750 c3        1 MOL     -0.590316
    100 C34         1.2470    4.7350    4.0940 c3        1 MOL     -0.337262
    101 H42        -1.5460    4.5130    2.9440 hn        1 MOL      0.356148
    102 H43        -1.0990    2.7150    3.8960 h1        1 MOL     -0.059763
    103 H44         0.9720    1.9600    1.8770 hc        1 MOL     -0.080261
    104 H45         0.9400    4.5400    2.0830 hc        1 MOL      0.114377
    105 H46         2.4130    3.7980    2.5630 hc        1 MOL      0.114377
    106 H47         0.7260    2.0840    4.8990 hc        1 MOL      0.141553
    107 H48         0.8910    0.6710    3.7760 hc        1 MOL      0.141553
    108 H49         2.2500    1.8000    3.9550 hc        1 MOL      0.141553
    109 H50         1.8360    4.3620    4.9260 hc        1 MOL      0.098217
    110 H51         1.6740    5.7100    3.8950 hc        1 MOL      0.098217
    111 H52         0.1860    4.7190    4.3670 hc        1 MOL      0.098217
    112 N10        -1.7960    0.2220    3.2880 n         1 MOL     -0.557340
    113 C35        -2.2440   -1.1320    2.9380 c3        1 MOL     -0.051270
    114 C36        -3.8050   -1.2670    2.9200 c         1 MOL      0.683440
    115 O17        -4.3760   -2.3060    2.9900 o         1 MOL     -0.555522
    116 C37        -1.6660   -2.0980    3.9400 c3        1 MOL      0.531980
    117 C38        -2.1770   -1.8680    5.3770 c3        1 MOL     -0.262527
    118 O18        -0.2350   -2.0770    3.9110 oh        1 MOL     -0.632435
    119 H53        -1.5530    0.4030    4.2530 hn        1 MOL      0.311472
    120 H54        -1.8770   -1.3920    1.9490 h1        1 MOL      0.057782
    121 H55        -2.1010   -3.0290    3.5850 h1        1 MOL     -0.055933
    122 H56        -0.0300   -2.2020    2.9810 ho        1 MOL      0.355395
    123 H57        -1.8690   -2.7270    5.9840 hc        1 MOL      0.060322
    124 H58        -1.8410   -0.9030    5.7460 hc        1 MOL      0.060322
    125 H59        -3.2730   -1.8790    5.3960 hc        1 MOL      0.060322
    126 N11        -4.5140   -0.1160    2.6360 n         1 MOL     -0.567254
    127 C39        -5.8970   -0.1370    2.2280 c3        1 MOL     -0.064873
    128 C40        -6.0550   -0.7430    0.8180 c         1 MOL      0.499760
    129 O19        -5.7650   -0.0240   -0.1850 o         1 MOL     -0.505592
    130 C41        -6.5530    1.2410    2.3550 c3        1 MOL      0.239399
    131 C42        -7.9730    1.1680    1.8080 c3        1 MOL     -0.432906
    132 O20        -6.7180    1.6430    3.7430 oh        1 MOL     -0.563369
    133 H60        -3.9750    0.7390    2.6230 hn        1 MOL      0.341526
    134 H61        -6.4860   -0.7480    2.9090 h1        1 MOL      0.103030
    135 H62        -5.9260    1.9990    1.8970 h1        1 MOL      0.092201
    136 H63        -5.8400    1.9020    4.0400 ho        1 MOL      0.358340
    137 H64        -8.5420    2.0910    1.8870 hc        1 MOL      0.126599
    138 H65        -7.9940    1.0200    0.7300 hc        1 MOL      0.126599
    139 H66        -8.5360    0.3510    2.2670 hc        1 MOL      0.126599
    140 N12        -6.6120   -1.9800    0.7520 n         1 MOL     -0.352939
    141 C43        -6.8980   -2.6620   -0.5900 c3        1 MOL      0.054779
    142 C44        -5.7660   -2.5540   -1.5570 c         1 MOL      0.497740
    143 O21        -5.8050   -1.8400   -2.5780 o         1 MOL     -0.542316
    144 C45        -8.2370   -2.3400   -1.2360 c3        1 MOL     -0.223151
    145 C46        -9.3770   -2.7880   -0.3220 c3        1 MOL     -0.116579
    146 C47       -10.7160   -2.4270   -0.9810 c3        1 MOL      0.039795
    147 C48       -11.9880   -2.4800   -0.0100 c3        1 MOL      0.049572
    148 N13       -13.2820   -2.1040   -0.6040 n4        1 MOL     -0.203903
    149 H67        -6.8920   -2.4860    1.5790 hn        1 MOL      0.272231
    150 H68        -6.9480   -3.7290   -0.3860 h1        1 MOL      0.032432
    151 H69        -8.3650   -2.7850   -2.2250 hc        1 MOL      0.111321
    152 H70        -8.1920   -1.2650   -1.4050 hc        1 MOL      0.111321
    153 H71        -9.2950   -2.3420    0.6670 hc        1 MOL      0.059333
    154 H72        -9.4610   -3.8720   -0.3300 hc        1 MOL      0.059333
    155 H73       -11.0070   -3.0070   -1.8510 hc        1 MOL      0.027058
    156 H74       -10.5560   -1.4210   -1.3720 hc        1 MOL      0.027058
    157 H75       -11.8290   -1.9180    0.9090 hx        1 MOL      0.049783
    158 H76       -12.0960   -3.5030    0.3490 hx        1 MOL      0.049783
    159 H77       -13.5200   -2.8410   -1.2570 hn        1 MOL      0.202319
    160 H78       -14.0600   -2.0090    0.0400 hn        1 MOL      0.202319
    161 H79       -13.2810   -1.2070   -1.0760 hn        1 MOL      0.202319
    162 N14        -4.6630   -3.1300   -1.2660 n         1 MOL     -0.183646
    163 C49        -3.3530   -2.8720   -1.8580 c3        1 MOL     -0.240390
    164 C50        -2.2490   -2.7280   -0.7640 c         1 MOL      0.390286
    165 O22        -1.7000   -1.5690   -0.7480 o         1 MOL     -0.550523
    166 C51        -3.0250   -4.0530   -2.8290 c3        1 MOL      0.036864
    167 C52        -4.0900   -4.1510   -3.9470 c3        1 MOL     -0.308406
    168 C53        -3.6870   -5.2390   -4.9540 c         1 MOL      0.657584
    169 O23        -3.9880   -6.4170   -4.6650 o         1 MOL     -0.612298
    170 O24        -2.7950   -5.0030   -5.7730 o         1 MOL     -0.612298
    171 H80        -4.6240   -3.7380   -0.4580 hn        1 MOL      0.186275
    172 H81        -3.2670   -1.9120   -2.3720 h1        1 MOL      0.258923
    173 H82        -2.9960   -4.9520   -2.2180 hc        1 MOL      0.079596
    174 H83        -2.0120   -3.9050   -3.2080 hc        1 MOL      0.079596
    175 H84        -4.1800   -3.2080   -4.4950 hc        1 MOL      0.064841
    176 H85        -5.0810   -4.3280   -3.5340 hc        1 MOL      0.064841
    177 N15        -1.9230   -3.6320    0.1210 n         1 MOL     -0.292000
    178 C54        -2.4370   -5.0110    0.3420 c3        1 MOL     -0.198107
    179 H86        -3.5250   -4.9880    0.3970 h1        1 MOL      0.100124
    180 H87        -2.1290   -5.6510   -0.4850 h1        1 MOL      0.100124
    181 H88        -2.0340   -5.4040    1.2760 h1        1 MOL      0.100124
    182 H89        -1.1010   -3.3050    0.6220 hn        1 MOL      0.424083
    183 Ca1        -0.6100    0.8110   -0.9820 Ca        1 MOL      1.788403
    184 O25         1.4030   -0.2050   -2.5850 oh        1 MOL     -0.913562
    185 H90         2.1910   -0.3540   -2.0620 ho        1 MOL      0.432256
    186 H91         1.6150    0.5700   -3.1090 ho        1 MOL      0.432256
    187 O26        -3.3580    0.9620   -1.4980 oh        1 MOL     -0.913562
    188 H92        -4.0430    1.3730   -2.0370 ho        1 MOL      0.432256
    189 H93        -3.8370    0.4510   -0.8500 ho        1 MOL      0.432256
    190 O27        -1.2110   -0.1920   -3.3210 oh        1 MOL     -0.913562
    191 H94        -0.3060   -0.2330   -3.6370 ho        1 MOL      0.432256
    192 H95        -1.7390   -0.2710   -4.1190 ho        1 MOL      0.432256
@<TRIPOS>BOND
     1    1    2 1   
     2    1    4 1   
     3    1    5 1   
     4    1    6 1   
     5    2    3 2   
     6    2    7 1   
     7    7    8 1   
     8    7   15 1   
     9    8    9 1   
    10    8   11 1   
    11    8   16 1   
    12    9   10 2   
    13    9   19 1   
    14   11   12 1   
    15   11   17 1   
    16   11   18 1   
    17   12   13 1   
    18   12   14 1   
    19   19   20 1   
    20   19   28 1   
    21   20   21 1   
    22   20   23 1   
    23   20   29 1   
    24   21   22 2   
    25   21   41 1   
    26   23   24 1   
    27   23   30 1   
    28   23   31 1   
    29   24   25 1   
    30   24   32 1   
    31   24   33 1   
    32   25   26 1   
    33   25   34 1   
    34   25   35 1   
    35   26   27 1   
    36   26   36 1   
    37   26   37 1   
    38   27   38 1   
    39   27   39 1   
    40   27   40 1   
    41   41   42 1   
    42   41   49 1   
    43   42   43 1   
    44   42   45 1   
    45   42   50 1   
    46   43   44 2   
    47   43   53 1   
    48   45   46 1   
    49   45   51 1   
    50   45   52 1   
    51   46   47 1   
    52   46   48 1   
    53   53   54 1   
    54   53   57 1   
    55   54   55 1   
    56   54   58 1   
    57   54   59 1   
    58   55   56 2   
    59   55   60 1   
    60   60   61 1   
    61   60   68 1   
    62   61   62 1   
    63   61   64 1   
    64   61   69 1   
    65   62   63 2   
    66   62   72 1   
    67   64   65 1   
    68   64   70 1   
    69   64   71 1   
    70   65   66 1   
    71   65   67 1   
    72   72   73 1   
    73   72   76 1   
    74   73   74 1   
    75   73   77 1   
    76   73   78 1   
    77   74   75 2   
    78   74   79 1   
    79   79   80 1   
    80   79   86 1   
    81   80   81 1   
    82   80   83 1   
    83   80   87 1   
    84   81   82 2   
    85   81   93 1   
    86   83   84 1   
    87   83   85 1   
    88   83   88 1   
    89   84   90 1   
    90   84   91 1   
    91   84   92 1   
    92   85   89 1   
    93   93   94 1   
    94   93  101 1   
    95   94   95 1   
    96   94   97 1   
    97   94  102 1   
    98   95   96 2   
    99   95  112 1   
   100   97   98 1   
   101   97   99 1   
   102   97  103 1   
   103   98  100 1   
   104   98  104 1   
   105   98  105 1   
   106   99  106 1   
   107   99  107 1   
   108   99  108 1   
   109  100  109 1   
   110  100  110 1   
   111  100  111 1   
   112  112  113 1   
   113  112  119 1   
   114  113  114 1   
   115  113  116 1   
   116  113  120 1   
   117  114  115 2   
   118  114  126 1   
   119  116  117 1   
   120  116  118 1   
   121  116  121 1   
   122  117  123 1   
   123  117  124 1   
   124  117  125 1   
   125  118  122 1   
   126  126  127 1   
   127  126  133 1   
   128  127  128 1   
   129  127  130 1   
   130  127  134 1   
   131  128  129 2   
   132  128  140 1   
   133  130  131 1   
   134  130  132 1   
   135  130  135 1   
   136  131  137 1   
   137  131  138 1   
   138  131  139 1   
   139  132  136 1   
   140  140  141 1   
   141  140  149 1   
   142  141  142 1   
   143  141  144 1   
   144  141  150 1   
   145  142  143 2   
   146  142  162 1   
   147  144  145 1   
   148  144  151 1   
   149  144  152 1   
   150  145  146 1   
   151  145  153 1   
   152  145  154 1   
   153  146  147 1   
   154  146  155 1   
   155  146  156 1   
   156  147  148 1   
   157  147  157 1   
   158  147  158 1   
   159  148  159 1   
   160  148  160 1   
   161  148  161 1   
   162  162  163 1   
   163  162  171 1   
   164  163  164 1   
   165  163  166 1   
   166  163  172 1   
   167  164  165 2   
   168  164  177 1   
   169  166  167 1   
   170  166  173 1   
   171  166  174 1   
   172  167  168 1   
   173  167  175 1   
   174  167  176 1   
   175  168  169 1   
   176  168  170 1   
   177  177  178 1   
   178  177  182 1   
   179  178  179 1   
   180  178  180 1   
   181  178  181 1   
   182  184  185 1   
   183  184  186 1   
   184  187  188 1   
   185  187  189 1   
   186  190  191 1   
   187  190  192 1   
@<TRIPOS>SUBSTRUCTURE
     1 MOL         1 TEMP              0 ****  ****    0 ROOT
