@<TRIPOS>MOLECULE
MOL
  182   178     1     0     0
SMALL
resp


@<TRIPOS>ATOM
      1 C1          0.6560   -4.2470    6.1300 c3        1 MOL     -0.340517
      2 C2          0.6330   -4.0760    4.6100 c         1 MOL      0.808533
      3 O1         -0.4040   -3.8730    4.0140 o         1 MOL     -0.634050
      4 H1         -0.3480   -4.0980    6.5270 hc        1 MOL      0.089607
      5 H2          1.0000   -5.2510    6.3780 hc        1 MOL      0.089607
      6 H3          1.3320   -3.5120    6.5670 hc        1 MOL      0.089607
      7 N1          1.7760   -4.0200    4.0130 n         1 MOL     -0.653528
      8 C3          1.9180   -3.5460    2.6290 c3        1 MOL      0.069944
      9 C4          1.7590   -4.7700    1.6550 c         1 MOL      0.594520
     10 O2          2.2470   -5.8940    1.8950 o         1 MOL     -0.537832
     11 C5          3.2370   -2.8430    2.4760 c3        1 MOL     -0.054924
     12 C6          3.3490   -1.8840    1.2900 c         1 MOL      0.532703
     13 O3          3.8250   -0.7520    1.4700 o         1 MOL     -0.645526
     14 O4          2.8090   -2.1610    0.1550 o         1 MOL     -0.645526
     15 H4          2.5960   -4.1130    4.5970 hn        1 MOL      0.339846
     16 H5          1.2480   -2.7230    2.3720 h1        1 MOL     -0.045832
     17 H6          4.1050   -3.5040    2.5540 hc        1 MOL      0.042634
     18 H7          3.2520   -2.1000    3.2790 hc        1 MOL      0.042634
     19 N2          1.3000   -4.4710    0.4280 n         1 MOL     -0.466255
     20 C7          1.2650   -5.2580   -0.8310 c3        1 MOL      0.013759
     21 C8          2.3810   -5.0470   -1.8990 c         1 MOL      0.544535
     22 O5          2.4910   -5.9570   -2.7530 o         1 MOL     -0.560498
     23 C9         -0.1590   -5.3010   -1.4520 c3        1 MOL      0.007922
     24 C10        -0.5970   -3.9290   -2.0330 c3        1 MOL      0.045622
     25 C11        -2.0360   -3.9600   -2.3730 c3        1 MOL     -0.221415
     26 C12        -2.4980   -2.6460   -2.9970 c3        1 MOL      0.187141
     27 N3         -1.9510   -2.4710   -4.4120 n4        1 MOL     -0.175086
     28 H8          1.0240   -3.5040    0.3920 hn        1 MOL      0.320562
     29 H9          1.4330   -6.2800   -0.4740 h1        1 MOL      0.120843
     30 H10        -0.8210   -5.6040   -0.6450 hc        1 MOL      0.012391
     31 H11        -0.3150   -6.0130   -2.2640 hc        1 MOL      0.012391
     32 H12         0.0360   -3.7190   -2.9020 hc        1 MOL     -0.039886
     33 H13        -0.3040   -3.1590   -1.3250 hc        1 MOL     -0.039886
     34 H14        -2.7010   -4.1350   -1.5290 hc        1 MOL      0.127091
     35 H15        -2.0620   -4.7240   -3.1580 hc        1 MOL      0.127091
     36 H16        -2.2020   -1.7790   -2.4110 hx        1 MOL     -0.009215
     37 H17        -3.5800   -2.7150   -3.0780 hx        1 MOL     -0.009215
     38 H18        -1.8280   -3.3730   -4.8300 hn        1 MOL      0.231445
     39 H19        -2.5450   -1.7660   -4.8280 hn        1 MOL      0.231445
     40 H20        -1.0480   -2.0240   -4.3730 hn        1 MOL      0.231445
     41 N4          3.2250   -3.9760   -1.8600 n         1 MOL     -0.444303
     42 C13         4.4730   -3.8830   -2.5960 c3        1 MOL      0.306274
     43 C14         5.6000   -3.7970   -1.5610 c         1 MOL      0.288403
     44 O6          6.6040   -4.5210   -1.6550 o         1 MOL     -0.584099
     45 C15         4.6070   -2.6430   -3.5320 c3        1 MOL     -0.565829
     46 C16         4.0650   -1.4020   -2.8130 c         1 MOL      1.055220
     47 O7          2.9490   -0.8960   -3.1930 o         1 MOL     -0.876755
     48 O8          4.5720   -0.9420   -1.8280 o         1 MOL     -0.876755
     49 H21         3.1460   -3.4910   -0.9730 hn        1 MOL      0.194974
     50 H22         4.5720   -4.7800   -3.2090 h1        1 MOL      0.069121
     51 H23         3.9970   -2.6890   -4.4290 hc        1 MOL      0.142198
     52 H24         5.6290   -2.5740   -3.9140 hc        1 MOL      0.142198
     53 N5          5.5050   -3.0820   -0.5190 n         1 MOL      0.194740
     54 C17         6.4770   -3.0200    0.6070 c3        1 MOL     -0.354903
     55 C18         7.1370   -1.6510    0.8360 c         1 MOL      0.602164
     56 O9          7.8870   -1.5510    1.7600 o         1 MOL     -0.561922
     57 H25         4.6590   -2.5380   -0.4100 hn        1 MOL     -0.037079
     58 H26         7.2260   -3.8160    0.5410 h1        1 MOL      0.154479
     59 H27         5.9300   -3.1960    1.5370 h1        1 MOL      0.154479
     60 N6          6.8960   -0.6560    0.0060 n         1 MOL     -0.307882
     61 C19         7.4030    0.7060    0.0440 c3        1 MOL      0.057110
     62 C20         6.2780    1.7930    0.0850 c         1 MOL      0.581170
     63 O10         5.1210    1.5670   -0.1030 o         1 MOL     -0.402921
     64 C21         8.4670    0.9080   -1.1210 c3        1 MOL     -0.278483
     65 C22         7.9760    0.6880   -2.5630 c         1 MOL      0.511789
     66 N7          8.6360    0.0690   -3.4920 n         1 MOL     -0.712531
     67 O11         6.8400    1.1750   -2.8550 o         1 MOL     -0.509401
     68 H28         6.2450   -0.9090   -0.7200 hn        1 MOL      0.259098
     69 H29         7.9990    0.8080    0.9480 h1        1 MOL      0.067468
     70 H30         9.4210    0.4150   -1.0150 hc        1 MOL      0.097524
     71 H31         8.7420    1.9580   -1.0460 hc        1 MOL      0.097524
     72 H32         9.6040   -0.1180   -3.2900 hn        1 MOL      0.368443
     73 H33         8.1870   -0.1280   -4.3850 hn        1 MOL      0.368443
     74 N8          6.6580    3.0620    0.3100 n         1 MOL     -0.571891
     75 C23         5.9210    4.3060    0.1360 c3        1 MOL      0.045327
     76 C24         4.8380    4.5180    1.1280 c         1 MOL      0.516413
     77 O12         4.9290    4.1760    2.2780 o         1 MOL     -0.461408
     78 H34         7.6480    3.2740    0.3550 hn        1 MOL      0.327293
     79 H35         5.4140    4.2920   -0.8290 h1        1 MOL      0.044995
     80 H36         6.6700    5.0950    0.0970 h1        1 MOL      0.044995
     81 N9          3.6530    4.8730    0.5410 n         1 MOL     -0.587184
     82 C25         2.3810    4.7370    1.2330 c3        1 MOL      0.433377
     83 C26         1.9480    3.2590    1.5400 c         1 MOL      0.519326
     84 O13         2.4340    2.3530    0.9080 o         1 MOL     -0.530637
     85 C27         1.2360    5.4480    0.4520 c3        1 MOL     -0.060543
     86 C28         1.6210    6.8220   -0.1520 ca        1 MOL     -0.130326
     87 C29         1.2060    7.0550   -1.4530 ca        1 MOL      0.040372
     88 C30         2.3490    7.8170    0.5890 ca        1 MOL      0.040372
     89 C31         1.7140    8.1700   -2.1560 ca        1 MOL     -0.423631
     90 C32         2.7050    9.0140   -0.0860 ca        1 MOL     -0.423631
     91 C33         2.4290    9.1930   -1.4270 ca        1 MOL      0.466249
     92 O14         2.8240   10.3120   -2.0350 oh        1 MOL     -0.463879
     93 H37         3.6390    5.4450   -0.2900 hn        1 MOL      0.261371
     94 H38         2.4990    5.2260    2.1970 h1        1 MOL     -0.022459
     95 H39         0.4060    5.5920    1.1360 hc        1 MOL     -0.007289
     96 H40         0.9400    4.7960   -0.3710 hc        1 MOL     -0.007289
     97 H41         0.7520    6.2970   -2.0720 ha        1 MOL      0.087213
     98 H42         2.5270    7.5420    1.6270 ha        1 MOL      0.087213
     99 H43         1.5860    8.3520   -3.2160 ha        1 MOL      0.187051
    100 H44         3.2290    9.8520    0.3390 ha        1 MOL      0.187051
    101 H45         2.4360   10.4110   -2.9150 ho        1 MOL      0.355748
    102 N10         1.0340    3.0140    2.4740 n         1 MOL     -0.696422
    103 C34         0.4530    1.7330    2.8990 c3        1 MOL      0.219294
    104 C35         0.0170    0.7390    1.7930 c         1 MOL      0.559225
    105 O15         0.8230    0.1910    1.0640 o         1 MOL     -0.499452
    106 C36         1.3640    1.0380    3.8910 c3        1 MOL      0.115050
    107 C37         0.8470   -0.2400    4.5870 c3        1 MOL      0.010079
    108 C38         1.9830    1.9570    5.0130 c3        1 MOL     -0.285518
    109 C39        -0.2940   -0.1320    5.6240 c3        1 MOL     -0.386679
    110 H46         0.8110    3.8490    2.9920 hn        1 MOL      0.314469
    111 H47        -0.3730    2.1300    3.4880 h1        1 MOL      0.058428
    112 H48         2.2380    0.7040    3.3280 hc        1 MOL      0.059270
    113 H49         1.6120   -0.9510    4.9050 hc        1 MOL      0.043130
    114 H50         0.3980   -0.7760    3.7520 hc        1 MOL      0.043130
    115 H51         1.2450    2.5070    5.6000 hc        1 MOL      0.076242
    116 H52         2.5710    1.3550    5.7090 hc        1 MOL      0.076242
    117 H53         2.6730    2.6400    4.5350 hc        1 MOL      0.076242
    118 H54        -0.4180   -1.1110    6.0930 hc        1 MOL      0.097353
    119 H55        -0.0490    0.4660    6.5020 hc        1 MOL      0.097353
    120 H56        -1.2480    0.1140    5.1600 hc        1 MOL      0.097353
    121 N11        -1.3050    0.4430    1.8170 n         1 MOL     -0.633320
    122 C40        -1.9880   -0.6320    0.9930 c3        1 MOL      0.438349
    123 C41        -3.4010   -0.2310    0.6770 c         1 MOL      0.238532
    124 O16        -4.0760    0.6500    1.2240 o         1 MOL     -0.503896
    125 C42        -1.7840   -2.0400    1.6140 c3        1 MOL     -0.020876
    126 O17        -2.2780   -3.0630    0.7740 oh        1 MOL     -0.645059
    127 H57        -1.9810    0.9640    2.3620 hn        1 MOL      0.271488
    128 H58        -1.4980   -0.7100    0.0300 h1        1 MOL      0.071859
    129 H59        -2.2750   -2.0180    2.5780 h1        1 MOL      0.096256
    130 H60        -0.7180   -2.1660    1.7880 h1        1 MOL      0.096256
    131 H61        -2.4280   -3.8850    1.2460 ho        1 MOL      0.463190
    132 N12        -3.9670   -1.0050   -0.1690 n         1 MOL     -0.109221
    133 C43        -5.3200   -0.9370   -0.7720 c3        1 MOL      0.076136
    134 C44        -5.7670   -2.2820   -0.9950 c         1 MOL      0.528213
    135 O18        -4.9270   -3.1330   -1.2690 o         1 MOL     -0.536503
    136 C45        -5.1610   -0.2430   -2.0880 c3        1 MOL     -0.119881
    137 H62        -3.5000   -1.8420   -0.4830 hn        1 MOL      0.091426
    138 H63        -6.0100   -0.3510   -0.1600 h1        1 MOL      0.085091
    139 H64        -4.7750   -0.9790   -2.7980 hc        1 MOL      0.025676
    140 H65        -6.1290    0.0690   -2.4850 hc        1 MOL      0.025676
    141 H66        -4.3630    0.4980   -2.0180 hc        1 MOL      0.025676
    142 N13        -7.0740   -2.6370   -1.0890 n         1 MOL     -0.594517
    143 C46        -8.3350   -1.8600   -0.7670 c3        1 MOL      0.396376
    144 C47        -8.7820   -0.8010   -1.8170 c         1 MOL      0.541896
    145 O19        -8.3110   -0.8530   -2.9550 o         1 MOL     -0.566428
    146 C48        -9.4330   -2.8510   -0.5990 c3        1 MOL     -0.216801
    147 H67        -7.1140   -3.6350   -1.2040 hn        1 MOL      0.335530
    148 H68        -8.2460   -1.3560    0.1920 h1        1 MOL     -0.012735
    149 H69       -10.3540   -2.3720   -0.2560 hc        1 MOL      0.067920
    150 H70        -9.6100   -3.5070   -1.4660 hc        1 MOL      0.067920
    151 H71        -9.2920   -3.4600    0.2900 hc        1 MOL      0.067920
    152 N14        -9.6840    0.1420   -1.6540 n         1 MOL     -0.625472
    153 C49       -10.3820    0.4710   -0.3710 c3        1 MOL     -0.023815
    154 C50        -9.5120    1.4220    0.4710 c         1 MOL      0.447872
    155 O20        -9.2860    1.0410    1.6180 o         1 MOL     -0.507837
    156 C51       -11.7350    1.0600   -0.7330 c3        1 MOL      0.173704
    157 C52       -12.7090    1.2660    0.4560 c3        1 MOL     -0.369992
    158 C53       -14.0480    2.0250    0.1220 c         1 MOL      0.712062
    159 O21       -15.0990    1.5330    0.5480 o         1 MOL     -0.660600
    160 O22       -13.9860    3.0800   -0.5690 o         1 MOL     -0.660600
    161 H72        -9.7560    0.7300   -2.4730 hn        1 MOL      0.361540
    162 H73       -10.5570   -0.4640    0.1610 h1        1 MOL      0.094735
    163 H74       -12.2630    0.4010   -1.4240 hc        1 MOL     -0.013384
    164 H75       -11.5080    1.9710   -1.2880 hc        1 MOL     -0.013384
    165 H76       -12.1390    1.7700    1.2360 hc        1 MOL      0.088931
    166 H77       -12.9080    0.2810    0.8940 hc        1 MOL      0.088931
    167 N15        -9.1210    2.6430    0.0220 n         1 MOL     -0.310775
    168 C54        -8.3110    3.6560    0.7330 c3        1 MOL     -0.248475
    169 H78        -7.9760    3.2500    1.6870 h1        1 MOL      0.123628
    170 H79        -7.4440    3.9200    0.1270 h1        1 MOL      0.123628
    171 H80        -8.9140    4.5460    0.9100 h1        1 MOL      0.123628
    172 H81        -9.4510    2.8740   -0.9040 hn        1 MOL      0.275392
    173 Ca1         2.6840    0.4030   -0.8200 Ca        1 MOL      1.816439
    174 O23         3.4180    2.3280   -2.5700 oh        1 MOL     -0.877659
    175 H82         4.0460    2.2090   -3.2920 ho        1 MOL      0.420266
    176 H83         3.3140    3.2800   -2.5030 ho        1 MOL      0.420266
    177 O24         0.3510   -0.6850   -2.0030 oh        1 MOL     -0.877659
    178 H84        -0.4130   -0.2930   -2.4250 ho        1 MOL      0.420266
    179 H85         0.8220   -1.1180   -2.7180 ho        1 MOL      0.420266
    180 O25         0.5780    2.2070   -1.4490 oh        1 MOL     -0.877659
    181 H86         0.8790    3.0130   -1.8800 ho        1 MOL      0.420266
    182 H87        -0.3730    2.3280   -1.3650 ho        1 MOL      0.420266
@<TRIPOS>BOND
     1    1    2 1   
     2    1    4 1   
     3    1    5 1   
     4    1    6 1   
     5    2    3 2   
     6    2    7 1   
     7    7    8 1   
     8    7   15 1   
     9    8    9 1   
    10    8   11 1   
    11    8   16 1   
    12    9   10 2   
    13    9   19 1   
    14   11   12 1   
    15   11   17 1   
    16   11   18 1   
    17   12   13 1   
    18   12   14 1   
    19   19   20 1   
    20   19   28 1   
    21   20   21 1   
    22   20   23 1   
    23   20   29 1   
    24   21   22 2   
    25   21   41 1   
    26   23   24 1   
    27   23   30 1   
    28   23   31 1   
    29   24   25 1   
    30   24   32 1   
    31   24   33 1   
    32   25   26 1   
    33   25   34 1   
    34   25   35 1   
    35   26   27 1   
    36   26   36 1   
    37   26   37 1   
    38   27   38 1   
    39   27   39 1   
    40   27   40 1   
    41   41   42 1   
    42   41   49 1   
    43   42   43 1   
    44   42   45 1   
    45   42   50 1   
    46   43   44 2   
    47   43   53 1   
    48   45   46 1   
    49   45   51 1   
    50   45   52 1   
    51   46   47 1   
    52   46   48 1   
    53   53   54 1   
    54   53   57 1   
    55   54   55 1   
    56   54   58 1   
    57   54   59 1   
    58   55   56 2   
    59   55   60 1   
    60   60   61 1   
    61   60   68 1   
    62   61   62 1   
    63   61   64 1   
    64   61   69 1   
    65   62   63 2   
    66   62   74 1   
    67   64   65 1   
    68   64   70 1   
    69   64   71 1   
    70   65   66 1   
    71   65   67 2   
    72   66   72 1   
    73   66   73 1   
    74   74   75 1   
    75   74   78 1   
    76   75   76 1   
    77   75   79 1   
    78   75   80 1   
    79   76   77 2   
    80   76   81 1   
    81   81   82 1   
    82   81   93 1   
    83   82   83 1   
    84   82   85 1   
    85   82   94 1   
    86   83   84 2   
    87   83  102 1   
    88   85   86 1   
    89   85   95 1   
    90   85   96 1   
    91   86   87 ar  
    92   86   88 ar  
    93   87   89 ar  
    94   87   97 1   
    95   88   90 ar  
    96   88   98 1   
    97   89   91 ar  
    98   89   99 1   
    99   90   91 ar  
   100   90  100 1   
   101   91   92 1   
   102   92  101 1   
   103  102  103 1   
   104  102  110 1   
   105  103  104 1   
   106  103  106 1   
   107  103  111 1   
   108  104  105 2   
   109  104  121 1   
   110  106  107 1   
   111  106  108 1   
   112  106  112 1   
   113  107  109 1   
   114  107  113 1   
   115  107  114 1   
   116  108  115 1   
   117  108  116 1   
   118  108  117 1   
   119  109  118 1   
   120  109  119 1   
   121  109  120 1   
   122  121  122 1   
   123  121  127 1   
   124  122  123 1   
   125  122  125 1   
   126  122  128 1   
   127  123  124 2   
   128  123  132 1   
   129  125  126 1   
   130  125  129 1   
   131  125  130 1   
   132  126  131 1   
   133  132  133 1   
   134  132  137 1   
   135  133  134 1   
   136  133  136 1   
   137  133  138 1   
   138  134  135 2   
   139  134  142 1   
   140  136  139 1   
   141  136  140 1   
   142  136  141 1   
   143  142  143 1   
   144  142  147 1   
   145  143  144 1   
   146  143  146 1   
   147  143  148 1   
   148  144  145 2   
   149  144  152 1   
   150  146  149 1   
   151  146  150 1   
   152  146  151 1   
   153  152  153 1   
   154  152  161 1   
   155  153  154 1   
   156  153  156 1   
   157  153  162 1   
   158  154  155 2   
   159  154  167 1   
   160  156  157 1   
   161  156  163 1   
   162  156  164 1   
   163  157  158 1   
   164  157  165 1   
   165  157  166 1   
   166  158  159 1   
   167  158  160 1   
   168  167  168 1   
   169  167  172 1   
   170  168  169 1   
   171  168  170 1   
   172  168  171 1   
   173  174  175 1   
   174  174  176 1   
   175  177  178 1   
   176  177  179 1   
   177  180  181 1   
   178  180  182 1   
@<TRIPOS>SUBSTRUCTURE
     1 MOL         1 TEMP              0 ****  ****    0 ROOT
