@<TRIPOS>MOLECULE
MOL
  201   193     1     0     0
SMALL
resp


@<TRIPOS>ATOM
      1 C1          2.7820    3.6300    3.0020 c3        1 MOL     -0.321823
      2 C2          1.8050    3.8550    1.8100 c         1 MOL      0.609404
      3 O1          0.9460    2.9590    1.6570 o         1 MOL     -0.463995
      4 H1          2.6650    2.6140    3.3810 hc        1 MOL      0.061583
      5 H2          3.8080    3.7750    2.6640 hc        1 MOL      0.061583
      6 H3          2.5560    4.3410    3.7970 hc        1 MOL      0.061583
      7 N1          1.9270    4.9930    1.0780 n         1 MOL     -0.623254
      8 C3          1.2410    5.2710   -0.1960 c3        1 MOL      0.269989
      9 C4         -0.3060    5.3030    0.0910 c         1 MOL      0.582091
     10 O2         -1.1010    4.4350   -0.3460 o         1 MOL     -0.520622
     11 C5          1.7850    4.3630   -1.3910 c3        1 MOL     -0.561250
     12 C6          1.4440    4.8640   -2.8450 c         1 MOL      0.805528
     13 O3          1.7310    4.2770   -3.8490 o         1 MOL     -0.667504
     14 O4          0.9500    6.0160   -2.9350 o         1 MOL     -0.667504
     15 H4          2.4300    5.6940    1.6030 hn        1 MOL      0.312166
     16 H5          1.4790    6.2920   -0.5020 h1        1 MOL      0.023760
     17 H6          1.2750    3.4050   -1.3610 hc        1 MOL      0.152997
     18 H7          2.8710    4.2890   -1.3510 hc        1 MOL      0.152997
     19 N2         -0.6560    6.3060    0.9090 n         1 MOL     -0.459574
     20 C7         -2.0980    6.5130    1.2400 c3        1 MOL     -0.243641
     21 C8         -2.8070    7.1750    0.0650 c         1 MOL      0.470351
     22 O5         -2.1860    7.9110   -0.7060 o         1 MOL     -0.549060
     23 C9         -2.2610    7.2680    2.6030 c3        1 MOL      0.436944
     24 C10        -1.5360    8.5570    2.5740 c3        1 MOL      0.180757
     25 C11        -1.7990    6.3980    3.8260 c3        1 MOL     -0.212280
     26 C12        -1.5580    9.4640    3.8070 c3        1 MOL     -0.238122
     27 H8         -0.0240    7.0600    1.1330 hn        1 MOL      0.238394
     28 H9         -2.5470    5.5290    1.3890 h1        1 MOL      0.181883
     29 H10        -3.3180    7.4740    2.7810 hc        1 MOL     -0.042330
     30 H11        -1.8980    9.2010    1.7610 hc        1 MOL     -0.040788
     31 H12        -0.4870    8.3180    2.3970 hc        1 MOL     -0.040788
     32 H13        -1.9500    5.3660    3.5020 hc        1 MOL      0.021823
     33 H14        -0.7210    6.5120    3.9250 hc        1 MOL      0.021823
     34 H15        -2.3670    6.5930    4.7330 hc        1 MOL      0.021823
     35 H16        -2.5130   10.0000    3.8810 hc        1 MOL      0.030400
     36 H17        -1.5050    8.8190    4.6900 hc        1 MOL      0.030400
     37 H18        -0.7260   10.1570    3.7900 hc        1 MOL      0.030400
     38 N3         -4.1050    7.0290   -0.1180 n         1 MOL     -0.388688
     39 C13        -4.9500    5.9020    0.3270 c3        1 MOL      0.010946
     40 C14        -4.7570    4.5470   -0.4050 c         1 MOL      0.416975
     41 O6         -5.0490    3.4350    0.1650 o         1 MOL     -0.567251
     42 C15        -6.4530    6.3900    0.2660 c3        1 MOL     -0.076959
     43 C16        -6.7450    7.6690    0.9140 c         1 MOL      0.706466
     44 O7         -6.2210    7.8980    2.0130 o         1 MOL     -0.691546
     45 O8         -7.3770    8.4950    0.3020 o         1 MOL     -0.691546
     46 H19        -4.4270    7.4350   -0.9870 hn        1 MOL      0.298859
     47 H20        -4.7400    5.6520    1.3640 h1        1 MOL      0.047551
     48 H21        -7.0740    5.7190    0.8620 hc        1 MOL      0.018477
     49 H22        -6.7420    6.4040   -0.7830 hc        1 MOL      0.018477
     50 N4         -4.2400    4.5420   -1.6220 n         1 MOL     -0.114895
     51 C17        -4.1150    3.3240   -2.4200 c3        1 MOL     -0.429246
     52 C18        -5.4620    2.7230   -2.8300 c         1 MOL      0.436365
     53 O9         -6.5240    3.3410   -2.6790 o         1 MOL     -0.536586
     54 H23        -4.0870    5.4590   -2.0180 hn        1 MOL      0.226917
     55 H24        -3.4920    2.5950   -1.8990 h1        1 MOL      0.199191
     56 H25        -3.5980    3.6740   -3.3110 h1        1 MOL      0.199191
     57 N5         -5.3370    1.4750   -3.0360 n         1 MOL     -0.165595
     58 C19        -6.4110    0.5330   -3.2690 c3        1 MOL     -0.022464
     59 C20        -7.3510    0.2150   -2.0820 c         1 MOL      0.433404
     60 O10        -8.5820    0.2000   -2.2540 o         1 MOL     -0.575051
     61 C21        -5.7550   -0.7340   -3.8660 c3        1 MOL     -0.099158
     62 C22        -4.7560   -1.3020   -2.9160 c         1 MOL      0.678629
     63 O11        -3.5630   -0.8420   -2.8720 o         1 MOL     -0.653635
     64 O12        -5.0810   -2.2600   -2.1400 o         1 MOL     -0.653635
     65 H26        -4.4450    1.0210   -3.1280 hn        1 MOL      0.151309
     66 H27        -6.9500    0.9740   -4.1130 h1        1 MOL      0.070946
     67 H28        -5.2770   -0.4040   -4.7850 hc        1 MOL      0.006723
     68 H29        -6.5420   -1.4470   -4.1180 hc        1 MOL      0.006723
     69 N6         -6.8410    0.0600   -0.8760 n         1 MOL     -0.069683
     70 C23        -7.6860   -0.3670    0.2990 c3        1 MOL     -0.341027
     71 C24        -7.8760   -1.8750    0.3960 c         1 MOL      0.516214
     72 O13        -8.6580   -2.4010    1.1490 o         1 MOL     -0.594864
     73 H30        -5.8450    0.1780   -0.8400 hn        1 MOL      0.219860
     74 H31        -8.6140    0.2080    0.2180 h1        1 MOL      0.155182
     75 H32        -7.2000    0.0910    1.1650 h1        1 MOL      0.155182
     76 N7         -7.1440   -2.6510   -0.3870 n         1 MOL      0.035423
     77 C25        -7.0950   -4.1280   -0.4900 c3        1 MOL      0.057947
     78 C26        -6.5540   -4.8940    0.7370 c         1 MOL      0.529382
     79 O14        -6.8280   -6.0440    0.9740 o         1 MOL     -0.524574
     80 C27        -8.3840   -4.6930   -1.0800 c3        1 MOL     -0.117282
     81 C28        -8.7650   -3.9040   -2.3690 c3        1 MOL     -0.122512
     82 C29        -9.5020   -4.6990   -3.4870 c         1 MOL      0.641982
     83 N8        -10.3400   -4.1370   -4.3340 n         1 MOL     -0.802577
     84 O15        -9.2750   -5.8600   -3.6620 o         1 MOL     -0.564289
     85 H33        -6.5430   -2.1230   -1.0130 hn        1 MOL     -0.044629
     86 H34        -6.3170   -4.3420   -1.2280 h1        1 MOL      0.089683
     87 H35        -9.2050   -4.5940   -0.3760 hc        1 MOL      0.043460
     88 H36        -8.2210   -5.7480   -1.3310 hc        1 MOL      0.043460
     89 H37        -7.9170   -3.5140   -2.9190 hc        1 MOL      0.060640
     90 H38        -9.3290   -3.0230   -2.0660 hc        1 MOL      0.060640
     91 H39       -10.5870   -3.1560   -4.2760 hn        1 MOL      0.345839
     92 H40       -10.7360   -4.7250   -5.0420 hn        1 MOL      0.345839
     93 N9         -5.7210   -4.1940    1.5600 n         1 MOL     -0.474468
     94 C30        -5.1560   -4.6550    2.8450 c3        1 MOL     -0.000564
     95 C31        -3.6900   -4.3860    3.0510 c         1 MOL      0.516291
     96 O16        -3.1720   -4.7120    4.1110 o         1 MOL     -0.578957
     97 C32        -5.9650   -4.0580    4.0630 c3        1 MOL      0.363864
     98 C33        -5.9690   -2.5680    4.2500 c3        1 MOL     -0.305167
     99 C34        -7.3670   -4.5690    4.0950 c3        1 MOL     -0.305167
    100 H41        -5.6100   -3.2280    1.2950 hn        1 MOL      0.223661
    101 H42        -5.4340   -5.7030    2.9700 h1        1 MOL      0.090173
    102 H43        -5.4450   -4.4690    4.9270 hc        1 MOL     -0.074080
    103 H44        -5.0310   -2.1700    3.8570 hc        1 MOL      0.060047
    104 H45        -6.8120   -2.0970    3.7560 hc        1 MOL      0.060047
    105 H46        -6.0640   -2.2160    5.2810 hc        1 MOL      0.060047
    106 H47        -7.8280   -4.1020    3.2240 hc        1 MOL      0.060047
    107 H48        -7.3940   -5.6560    3.9710 hc        1 MOL      0.060047
    108 H49        -7.9040   -4.2510    4.9930 hc        1 MOL      0.060047
    109 N10        -3.0290   -3.7710    2.0480 n         1 MOL     -0.422149
    110 C35        -1.6630   -3.2550    2.1170 c3        1 MOL      0.292891
    111 C36        -1.0480   -3.5330    0.7470 c         1 MOL      0.361343
    112 O17        -1.7760   -3.6530   -0.2230 o         1 MOL     -0.494464
    113 C37        -1.7260   -1.7600    2.4020 c3        1 MOL     -0.119860
    114 C38        -0.6650   -1.2920    3.4030 c         1 MOL      0.573023
    115 N11        -0.9880   -0.9150    4.6010 n         1 MOL     -0.758923
    116 O18         0.5600   -1.5130    3.1250 o         1 MOL     -0.573378
    117 H50        -3.5710   -3.4310    1.2680 hn        1 MOL      0.232816
    118 H51        -1.1100   -3.8380    2.8610 h1        1 MOL      0.032588
    119 H52        -2.6840   -1.5660    2.8960 hc        1 MOL      0.074844
    120 H53        -1.6860   -1.1040    1.5330 hc        1 MOL      0.074844
    121 H54        -1.9330   -1.0310    4.9360 hn        1 MOL      0.367378
    122 H55        -0.2010   -0.7180    5.2110 hn        1 MOL      0.367378
    123 N12         0.2500   -3.6830    0.5970 n         1 MOL     -0.332443
    124 C39         1.0660   -3.8390   -0.6140 c3        1 MOL      0.215535
    125 C40         2.4910   -4.2560   -0.1870 c         1 MOL      0.331813
    126 O19         2.9000   -4.1030    0.9750 o         1 MOL     -0.479374
    127 C41         1.1450   -2.5290   -1.3980 c3        1 MOL     -0.280249
    128 C42         2.1670   -1.5420   -0.9390 ca        1 MOL      0.281119
    129 C43         1.9060   -0.7400    0.1580 ca        1 MOL     -0.217179
    130 C44         3.2760   -1.3070   -1.7580 ca        1 MOL     -0.217179
    131 C45         2.7400    0.3090    0.5290 ca        1 MOL     -0.129952
    132 C46         4.2100   -0.3270   -1.3330 ca        1 MOL     -0.129952
    133 C47         3.9240    0.5010   -0.1950 ca        1 MOL      0.029125
    134 O20         4.7100    1.5190    0.1520 oh        1 MOL     -0.306292
    135 H56         0.7960   -3.6530    1.4450 hn        1 MOL      0.214833
    136 H57         0.5780   -4.5520   -1.2690 h1        1 MOL      0.057083
    137 H58         0.1650   -2.0660   -1.4260 hc        1 MOL      0.095393
    138 H59         1.3880   -2.7710   -2.4290 hc        1 MOL      0.095393
    139 H60         0.9780   -0.9180    0.6840 ha        1 MOL      0.109876
    140 H61         3.5250   -1.9720   -2.5620 ha        1 MOL      0.109876
    141 H62         2.5110    0.8320    1.4420 ha        1 MOL      0.147652
    142 H63         5.1130   -0.2140   -1.9060 ha        1 MOL      0.147652
    143 H64         4.5000    1.9710    0.9660 ho        1 MOL      0.324231
    144 N13         3.1990   -4.8890   -1.1040 n         1 MOL     -0.407768
    145 C48         4.4490   -5.5050   -0.7530 c3        1 MOL      0.197367
    146 C49         5.6550   -5.1230   -1.6350 c         1 MOL      0.469993
    147 O21         5.8910   -5.7040   -2.6990 o         1 MOL     -0.554728
    148 C50         4.2250   -7.0240   -0.8740 c3        1 MOL     -0.113507
    149 C51         3.1920   -7.5470    0.1390 c3        1 MOL     -0.204567
    150 C52         3.3020   -9.0630    0.2330 c         1 MOL      0.717742
    151 O22         3.1830   -9.7510   -0.7900 o         1 MOL     -0.665207
    152 O23         3.7160   -9.6120    1.2400 o         1 MOL     -0.665207
    153 H65         2.7360   -5.0550   -1.9940 hn        1 MOL      0.308475
    154 H66         4.7200   -5.3650    0.2940 h1        1 MOL      0.050847
    155 H67         5.1840   -7.5110   -0.6910 hc        1 MOL      0.064333
    156 H68         3.9530   -7.2660   -1.8950 hc        1 MOL      0.064333
    157 H69         2.1660   -7.2090   -0.0310 hc        1 MOL      0.035226
    158 H70         3.4270   -7.1160    1.1070 hc        1 MOL      0.035226
    159 N14         6.3620   -4.0420   -1.3340 n         1 MOL     -0.531485
    160 C53         6.3530   -3.3820   -0.0060 c3        1 MOL      0.014589
    161 C54         6.8720   -4.1840    1.2320 c         1 MOL      0.708459
    162 O24         7.5620   -5.1640    1.0130 o         1 MOL     -0.572115
    163 C55         7.0770   -2.0230   -0.1810 c3        1 MOL      0.175194
    164 C56         8.6010   -1.9390   -0.2150 c3        1 MOL     -0.242765
    165 C57         8.9770   -0.5210   -0.1830 c         1 MOL      0.740441
    166 O25         9.1720    0.0470    0.9310 o         1 MOL     -0.706634
    167 O26         9.1910    0.1830   -1.2180 o         1 MOL     -0.706634
    168 H71         7.0040   -3.7300   -2.0490 hn        1 MOL      0.345124
    169 H72         5.3230   -3.1120    0.2440 h1        1 MOL      0.013993
    170 H73         6.8150   -1.3960    0.6690 hc        1 MOL     -0.062355
    171 H74         6.7000   -1.4890   -1.0490 hc        1 MOL     -0.062355
    172 H75         8.8500   -2.3490   -1.1930 hc        1 MOL      0.028941
    173 H76         8.9470   -2.5250    0.6390 hc        1 MOL      0.028941
    174 N15         6.3750   -3.8320    2.4020 n         1 MOL     -0.397991
    175 C58         6.5040   -4.4750    3.7190 c3        1 MOL     -0.184384
    176 H77         6.5160   -5.5580    3.5950 h1        1 MOL      0.101278
    177 H78         7.4320   -4.1540    4.1920 h1        1 MOL      0.101278
    178 H79         5.6590   -4.1920    4.3470 h1        1 MOL      0.101278
    179 H80         5.6720   -3.1020    2.3690 hn        1 MOL      0.286152
    180 Ca1         9.8560    2.5460   -0.9240 Ca        1 MOL      2.013968
    181 O27        10.4280    3.0330   -3.5450 oh        1 MOL     -0.926669
    182 H81        11.0370    2.6970   -4.2070 ho        1 MOL      0.398837
    183 H82         9.7910    3.5380   -4.0540 ho        1 MOL      0.398837
    184 O28        11.6390    4.4600   -1.0810 oh        1 MOL     -0.926669
    185 H83        11.3130    5.3080   -0.8020 ho        1 MOL      0.398837
    186 H84        12.5550    4.6080   -1.3090 ho        1 MOL      0.398837
    187 O29        12.0290    1.0150   -1.2130 oh        1 MOL     -0.926669
    188 H85        12.8430    1.2960   -1.6340 ho        1 MOL      0.398837
    189 H86        12.1960    0.1190   -0.9450 ho        1 MOL      0.398837
    190 O30        10.5900    2.7730    1.5340 oh        1 MOL     -0.926669
    191 H87        10.4790    1.9950    2.0690 ho        1 MOL      0.398837
    192 H88        10.5160    3.5040    2.1480 ho        1 MOL      0.398837
    193 O31         7.8410    2.0150   -2.6090 oh        1 MOL     -0.926669
    194 H89         7.0770    2.3570   -3.0800 ho        1 MOL      0.398837
    195 H90         7.9410    1.1130   -2.9250 ho        1 MOL      0.398837
    196 O32         8.6620    4.8480   -0.1840 oh        1 MOL     -0.926669
    197 H91         7.7220    4.7260   -0.2820 ho        1 MOL      0.398837
    198 H92         8.7570    5.3320    0.6310 ho        1 MOL      0.398837
    199 O33         7.6010    2.0970    0.6670 oh        1 MOL     -0.926669
    200 H93         7.8170    1.1810    0.8490 ho        1 MOL      0.398837
    201 H94         6.7380    2.2230    1.0680 ho        1 MOL      0.398837
@<TRIPOS>BOND
     1    1    2 1   
     2    1    4 1   
     3    1    5 1   
     4    1    6 1   
     5    2    3 2   
     6    2    7 1   
     7    7    8 1   
     8    7   15 1   
     9    8    9 1   
    10    8   11 1   
    11    8   16 1   
    12    9   10 2   
    13    9   19 1   
    14   11   12 1   
    15   11   17 1   
    16   11   18 1   
    17   12   13 1   
    18   12   14 1   
    19   19   20 1   
    20   19   27 1   
    21   20   21 1   
    22   20   23 1   
    23   20   28 1   
    24   21   22 2   
    25   21   38 1   
    26   23   24 1   
    27   23   25 1   
    28   23   29 1   
    29   24   26 1   
    30   24   30 1   
    31   24   31 1   
    32   25   32 1   
    33   25   33 1   
    34   25   34 1   
    35   26   35 1   
    36   26   36 1   
    37   26   37 1   
    38   38   39 1   
    39   38   46 1   
    40   39   40 1   
    41   39   42 1   
    42   39   47 1   
    43   40   41 2   
    44   40   50 1   
    45   42   43 1   
    46   42   48 1   
    47   42   49 1   
    48   43   44 1   
    49   43   45 1   
    50   50   51 1   
    51   50   54 1   
    52   51   52 1   
    53   51   55 1   
    54   51   56 1   
    55   52   53 2   
    56   52   57 1   
    57   57   58 1   
    58   57   65 1   
    59   58   59 1   
    60   58   61 1   
    61   58   66 1   
    62   59   60 2   
    63   59   69 1   
    64   61   62 1   
    65   61   67 1   
    66   61   68 1   
    67   62   63 1   
    68   62   64 1   
    69   69   70 1   
    70   69   73 1   
    71   70   71 1   
    72   70   74 1   
    73   70   75 1   
    74   71   72 2   
    75   71   76 1   
    76   76   77 1   
    77   76   85 1   
    78   77   78 1   
    79   77   80 1   
    80   77   86 1   
    81   78   79 2   
    82   78   93 1   
    83   80   81 1   
    84   80   87 1   
    85   80   88 1   
    86   81   82 1   
    87   81   89 1   
    88   81   90 1   
    89   82   83 1   
    90   82   84 2   
    91   83   91 1   
    92   83   92 1   
    93   93   94 1   
    94   93  100 1   
    95   94   95 1   
    96   94   97 1   
    97   94  101 1   
    98   95   96 2   
    99   95  109 1   
   100   97   98 1   
   101   97   99 1   
   102   97  102 1   
   103   98  103 1   
   104   98  104 1   
   105   98  105 1   
   106   99  106 1   
   107   99  107 1   
   108   99  108 1   
   109  109  110 1   
   110  109  117 1   
   111  110  111 1   
   112  110  113 1   
   113  110  118 1   
   114  111  112 2   
   115  111  123 1   
   116  113  114 1   
   117  113  119 1   
   118  113  120 1   
   119  114  115 1   
   120  114  116 2   
   121  115  121 1   
   122  115  122 1   
   123  123  124 1   
   124  123  135 1   
   125  124  125 1   
   126  124  127 1   
   127  124  136 1   
   128  125  126 2   
   129  125  144 1   
   130  127  128 1   
   131  127  137 1   
   132  127  138 1   
   133  128  129 ar  
   134  128  130 ar  
   135  129  131 ar  
   136  129  139 1   
   137  130  132 ar  
   138  130  140 1   
   139  131  133 ar  
   140  131  141 1   
   141  132  133 ar  
   142  132  142 1   
   143  133  134 1   
   144  134  143 1   
   145  144  145 1   
   146  144  153 1   
   147  145  146 1   
   148  145  148 1   
   149  145  154 1   
   150  146  147 2   
   151  146  159 1   
   152  148  149 1   
   153  148  155 1   
   154  148  156 1   
   155  149  150 1   
   156  149  157 1   
   157  149  158 1   
   158  150  151 1   
   159  150  152 1   
   160  159  160 1   
   161  159  168 1   
   162  160  161 1   
   163  160  163 1   
   164  160  169 1   
   165  161  162 2   
   166  161  174 1   
   167  163  164 1   
   168  163  170 1   
   169  163  171 1   
   170  164  165 1   
   171  164  172 1   
   172  164  173 1   
   173  165  166 1   
   174  165  167 1   
   175  174  175 1   
   176  174  179 1   
   177  175  176 1   
   178  175  177 1   
   179  175  178 1   
   180  181  182 1   
   181  181  183 1   
   182  184  185 1   
   183  184  186 1   
   184  187  188 1   
   185  187  189 1   
   186  190  191 1   
   187  190  192 1   
   188  193  194 1   
   189  193  195 1   
   190  196  197 1   
   191  196  198 1   
   192  199  200 1   
   193  199  201 1   
@<TRIPOS>SUBSTRUCTURE
     1 MOL         1 TEMP              0 ****  ****    0 ROOT
