@<TRIPOS>MOLECULE
MOL
  186   183     1     0     0
SMALL
resp


@<TRIPOS>ATOM
      1 C1        -12.0730    4.4740    3.8170 c3        1 MOL     -0.643976
      2 C2        -11.9140    3.5380    2.6170 c         1 MOL      0.652431
      3 O1        -12.3650    2.3900    2.7350 o         1 MOL     -0.570538
      4 H1        -11.5700    4.0420    4.6830 hc        1 MOL      0.167668
      5 H2        -11.6280    5.4420    3.5850 hc        1 MOL      0.167668
      6 H3        -13.1310    4.6030    4.0400 hc        1 MOL      0.167668
      7 N1        -11.3340    4.0150    1.5380 n         1 MOL     -0.026330
      8 C3        -11.1480    3.2630    0.2840 c3        1 MOL     -0.948284
      9 C4         -9.9880    2.1360    0.3750 c         1 MOL      0.677056
     10 O2         -8.9590    2.3880    0.9680 o         1 MOL     -0.677576
     11 C5        -10.8720    4.2850   -0.9120 c3        1 MOL      0.564725
     12 C6         -9.7780    5.3220   -0.7040 c         1 MOL      0.606780
     13 O3         -9.0400    5.3740    0.2860 o         1 MOL     -0.716731
     14 O4         -9.6940    6.1530   -1.6370 o         1 MOL     -0.716731
     15 H4        -10.9310    4.9330    1.5690 hn        1 MOL      0.141504
     16 H5        -12.0580    2.7460   -0.0010 h1        1 MOL      0.211426
     17 H6        -11.7490    4.8670   -1.1980 hc        1 MOL     -0.066527
     18 H7        -10.6520    3.6020   -1.7360 hc        1 MOL     -0.066527
     19 N2        -10.2520    1.0480   -0.3240 n         1 MOL     -0.235379
     20 C7         -9.5250   -0.1990   -0.1920 c3        1 MOL      0.137486
     21 C8         -8.1640   -0.1810   -0.9720 c         1 MOL      0.345077
     22 O5         -7.9990   -1.0050   -1.8510 o         1 MOL     -0.516371
     23 C9        -10.4040   -1.3600   -0.5670 c3        1 MOL     -0.061552
     24 C10       -11.5130   -1.4600    0.5450 c3        1 MOL     -0.063829
     25 C11       -12.6090   -2.5400    0.2630 c3        1 MOL     -0.209505
     26 C12       -13.2900   -2.4770   -1.0760 c3        1 MOL      0.156096
     27 N3        -14.7340   -2.8970   -1.0080 n4        1 MOL     -0.348903
     28 H8        -11.0810    1.0220   -0.9060 hn        1 MOL      0.275723
     29 H9         -9.1600   -0.3460    0.8270 h1        1 MOL      0.030250
     30 H10        -9.7850   -2.2660   -0.5870 hc        1 MOL      0.061120
     31 H11       -10.8680   -1.0760   -1.5110 hc        1 MOL      0.061120
     32 H12       -11.9760   -0.5010    0.7810 hc        1 MOL      0.033966
     33 H13       -10.9800   -1.7690    1.4420 hc        1 MOL      0.033966
     34 H14       -13.3490   -2.5080    1.0690 hc        1 MOL      0.105598
     35 H15       -12.1140   -3.5010    0.3410 hc        1 MOL      0.105598
     36 H16       -12.7020   -3.0670   -1.7660 hx        1 MOL      0.044094
     37 H17       -13.2750   -1.4540   -1.4560 hx        1 MOL      0.044094
     38 H18       -15.2850   -2.4020   -0.3220 hn        1 MOL      0.290626
     39 H19       -15.1700   -2.6030   -1.8790 hn        1 MOL      0.290626
     40 H20       -14.8590   -3.8900   -0.9350 hn        1 MOL      0.290626
     41 N4         -7.2390    0.6950   -0.6470 n         1 MOL      0.174702
     42 C13        -5.9220    0.7970   -1.1720 c3        1 MOL     -0.551398
     43 C14        -5.0760    1.3110    0.0330 c         1 MOL      0.388942
     44 O6         -5.5990    2.1290    0.8070 o         1 MOL     -0.650990
     45 C15        -5.9200    1.7160   -2.4160 c3        1 MOL     -0.231946
     46 C16        -6.7610    2.9590   -2.3340 c         1 MOL      0.517961
     47 O7         -7.3540    3.2010   -3.4110 o         1 MOL     -0.600649
     48 O8         -6.8520    3.6480   -1.3000 o         1 MOL     -0.600649
     49 H21        -7.5550    1.3620    0.0380 hn        1 MOL      0.151426
     50 H22        -5.4980   -0.1730   -1.4520 h1        1 MOL      0.235135
     51 H23        -6.3920    1.0950   -3.1820 hc        1 MOL      0.150632
     52 H24        -4.9220    2.0310   -2.7140 hc        1 MOL      0.150632
     53 N5         -3.8400    0.8760    0.2140 n         1 MOL     -0.145426
     54 C17        -3.0500   -0.1510   -0.4070 c3        1 MOL     -0.160532
     55 C18        -3.5130   -1.5730   -0.0290 c         1 MOL      0.635637
     56 O9         -4.2700   -1.7550    0.9400 o         1 MOL     -0.529184
     57 H25        -3.2950    1.3410    0.9220 hn        1 MOL      0.230798
     58 H26        -1.9900   -0.0450   -0.1540 h1        1 MOL      0.091032
     59 H27        -3.2130   -0.0960   -1.4790 h1        1 MOL      0.091032
     60 N6         -3.1570   -2.5690   -0.9390 n         1 MOL     -0.687685
     61 C19        -3.6750   -3.9330   -1.0230 c3        1 MOL      0.438113
     62 C20        -2.5820   -4.9200   -1.3890 c         1 MOL      0.350288
     63 O10        -1.7040   -4.5240   -2.2020 o         1 MOL     -0.505197
     64 C21        -4.7970   -3.9500   -2.0870 c3        1 MOL     -0.185735
     65 C22        -5.6440   -5.2130   -2.0350 c         1 MOL      0.646156
     66 O11        -5.6070   -5.9350   -1.0150 o         1 MOL     -0.657472
     67 O12        -6.1890   -5.5970   -3.0890 o         1 MOL     -0.657472
     68 H28        -2.6070   -2.2750   -1.7320 hn        1 MOL      0.309293
     69 H29        -4.2470   -4.2020   -0.1390 h1        1 MOL     -0.062715
     70 H30        -4.3500   -3.6590   -3.0390 hc        1 MOL      0.045915
     71 H31        -5.4840   -3.1850   -1.7420 hc        1 MOL      0.045915
     72 N7         -2.6220   -6.1450   -0.8660 n         1 MOL     -0.103692
     73 C23        -1.4630   -7.0600   -0.9900 c3        1 MOL     -0.397161
     74 C24        -0.2240   -6.6060   -0.2350 c         1 MOL      0.572827
     75 O13         0.8790   -7.1130   -0.5420 o         1 MOL     -0.563707
     76 H32        -3.4470   -6.3410   -0.3250 hn        1 MOL      0.188317
     77 H33        -1.2090   -7.2830   -2.0260 h1        1 MOL      0.176179
     78 H34        -1.7630   -7.9420   -0.4280 h1        1 MOL      0.176179
     79 N8         -0.2700   -5.5820    0.6080 n         1 MOL     -0.237542
     80 C25         0.8590   -4.8780    1.2140 c3        1 MOL     -0.033608
     81 C26         1.2530   -3.6140    0.4270 c         1 MOL      0.629868
     82 O14         0.6230   -3.1290   -0.4920 o         1 MOL     -0.476053
     83 C27         0.4990   -4.4520    2.6310 c3        1 MOL      0.337775
     84 C28        -0.6640   -3.4770    2.7700 c3        1 MOL     -0.151576
     85 O15         0.1540   -5.6210    3.2980 oh        1 MOL     -0.644254
     86 H35        -1.1300   -5.0800    0.7390 hn        1 MOL      0.143623
     87 H36         1.7590   -5.4870    1.2070 h1        1 MOL      0.082787
     88 H37         1.3450   -3.9540    3.1110 h1        1 MOL     -0.046077
     89 H38         0.1390   -5.4700    4.2450 ho        1 MOL      0.407827
     90 H39        -1.4730   -3.7810    2.1070 hc        1 MOL      0.042019
     91 H40        -1.0770   -3.4120    3.7720 hc        1 MOL      0.042019
     92 H41        -0.4400   -2.4560    2.4550 hc        1 MOL      0.042019
     93 N9          2.4030   -2.9790    0.8690 n         1 MOL     -0.622170
     94 C29         2.8940   -1.6460    0.3150 c3        1 MOL     -0.084309
     95 C30         4.4100   -1.4460    0.2240 c         1 MOL      0.490479
     96 O16         4.9970   -0.3470    0.1110 o         1 MOL     -0.503506
     97 C31         2.3220   -0.4740    1.1540 c3        1 MOL      0.268860
     98 C32         2.3230   -0.7200    2.6730 c3        1 MOL      0.047347
     99 C33         0.9920   -0.1000    0.5490 c3        1 MOL     -0.123925
    100 C34         1.9690    0.4940    3.5200 c3        1 MOL     -0.245124
    101 H42         2.7710   -3.3260    1.7410 hn        1 MOL      0.290692
    102 H43         2.6490   -1.5120   -0.7370 h1        1 MOL      0.146076
    103 H44         2.9450    0.3880    0.9240 hc        1 MOL     -0.025421
    104 H45         3.3510   -1.0220    2.8900 hc        1 MOL      0.001914
    105 H46         1.6360   -1.5090    2.9650 hc        1 MOL      0.001914
    106 H47         0.2960   -0.9050    0.7990 hc        1 MOL      0.016240
    107 H48         0.7030    0.9100    0.8620 hc        1 MOL      0.016240
    108 H49         1.0340   -0.0400   -0.5390 hc        1 MOL      0.016240
    109 H50         2.8150    1.1820    3.5630 hc        1 MOL      0.055942
    110 H51         1.1010    1.0400    3.1720 hc        1 MOL      0.055942
    111 H52         1.6570    0.1820    4.5190 hc        1 MOL      0.055942
    112 N10         5.1090   -2.6250    0.3090 n         1 MOL     -0.415494
    113 C35         6.4060   -2.8280   -0.3920 c3        1 MOL      0.036948
    114 C36         7.5390   -2.8840    0.6770 c         1 MOL      0.548116
    115 O17         7.3300   -3.1670    1.8770 o         1 MOL     -0.512896
    116 C37         6.2290   -3.9210   -1.3970 c3        1 MOL      0.421426
    117 C38         5.2930   -3.5590   -2.5380 c3        1 MOL     -0.385455
    118 O18         7.4660   -4.3630   -1.9500 oh        1 MOL     -0.701536
    119 H53         4.6650   -3.4340    0.7170 hn        1 MOL      0.247003
    120 H54         6.5910   -1.9020   -0.9490 h1        1 MOL      0.082609
    121 H55         5.8600   -4.8190   -0.9010 h1        1 MOL     -0.021049
    122 H56         7.3650   -5.2260   -2.3380 ho        1 MOL      0.427862
    123 H57         5.5630   -4.1860   -3.3940 hc        1 MOL      0.107872
    124 H58         4.2310   -3.6180   -2.3040 hc        1 MOL      0.107872
    125 H59         5.5170   -2.5380   -2.8540 hc        1 MOL      0.107872
    126 N11         8.8090   -2.6160    0.2830 n         1 MOL     -0.565843
    127 C39         9.8610   -2.2580    1.2490 c3        1 MOL      0.062874
    128 C40        10.0410   -0.7380    1.4230 c         1 MOL      0.730773
    129 O19        10.4010   -0.4280    2.5480 o         1 MOL     -0.583176
    130 C41        11.2160   -2.9830    0.9820 c3        1 MOL      0.175680
    131 C42        12.4280   -2.7150    1.9320 c3        1 MOL     -0.372342
    132 O20        11.5600   -2.7250   -0.3610 oh        1 MOL     -0.614694
    133 H60         9.0630   -2.4210   -0.6800 hn        1 MOL      0.356389
    134 H61         9.4560   -2.5260    2.2250 h1        1 MOL      0.097288
    135 H62        11.0180   -4.0550    0.9130 h1        1 MOL      0.068437
    136 H63        12.4900   -2.9620   -0.3860 ho        1 MOL      0.392289
    137 H64        12.2630   -3.1460    2.9220 hc        1 MOL      0.105388
    138 H65        13.3640   -3.0260    1.4790 hc        1 MOL      0.105388
    139 H66        12.4610   -1.6300    2.0910 hc        1 MOL      0.105388
    140 N12         9.7530    0.1390    0.3870 n         1 MOL     -0.608073
    141 C43        10.1220    1.5940    0.4580 c3        1 MOL      0.195610
    142 C44         9.1060    2.4670   -0.4070 c         1 MOL      0.459586
    143 O21         8.4460    1.9720   -1.2960 o         1 MOL     -0.465326
    144 C45        11.5680    1.7170   -0.1460 c3        1 MOL     -0.039390
    145 C46        12.6600    1.1500    0.8090 c3        1 MOL     -0.061300
    146 C47        14.1390    1.3490    0.3330 c3        1 MOL     -0.028918
    147 C48        14.4990    0.3790   -0.7660 c3        1 MOL      0.127202
    148 N13        15.9110    0.4210   -1.3190 n4        1 MOL     -0.209170
    149 H67         9.3700   -0.2320   -0.4730 hn        1 MOL      0.280919
    150 H68        10.0860    2.0580    1.4380 h1        1 MOL      0.047529
    151 H69        11.8000    2.7520   -0.3900 hc        1 MOL      0.039783
    152 H70        11.6080    1.1470   -1.0740 hc        1 MOL      0.039783
    153 H71        12.6070    0.1010    1.0730 hc        1 MOL      0.030823
    154 H72        12.4330    1.7920    1.6590 hc        1 MOL      0.030823
    155 H73        14.9330    1.1750    1.0470 hc        1 MOL      0.024010
    156 H74        14.2410    2.4170    0.1240 hc        1 MOL      0.024010
    157 H75        13.7580    0.5510   -1.5370 hx        1 MOL      0.020653
    158 H76        14.2450   -0.6230   -0.4110 hx        1 MOL      0.020653
    159 H77        16.5620    0.1620   -0.5910 hn        1 MOL      0.224982
    160 H78        16.0440   -0.3720   -1.9260 hn        1 MOL      0.224982
    161 H79        16.1830    1.3110   -1.7110 hn        1 MOL      0.224982
    162 N14         9.1770    3.7770   -0.2170 n         1 MOL     -0.522980
    163 C49         8.4860    4.7330   -1.1130 c3        1 MOL      0.121282
    164 C50         6.9680    4.6710   -0.8600 c         1 MOL      0.415028
    165 O22         6.2330    4.7270   -1.8210 o         1 MOL     -0.538628
    166 C51         8.9040    6.1920   -0.8170 c3        1 MOL     -0.225580
    167 C52         8.5110    7.0810   -1.9490 c3        1 MOL     -0.190531
    168 C53         8.8190    8.5070   -1.5830 c         1 MOL      0.715466
    169 O23         9.6540    9.1960   -2.2140 o         1 MOL     -0.651719
    170 O24         8.1760    8.9670   -0.6050 o         1 MOL     -0.651719
    171 H80         9.7400    4.1020    0.5620 hn        1 MOL      0.305476
    172 H81         8.5940    4.4060   -2.1470 h1        1 MOL      0.091377
    173 H82         9.9360    6.2750   -0.4880 hc        1 MOL      0.088788
    174 H83         8.3020    6.5270    0.0330 hc        1 MOL      0.088788
    175 H84         7.4510    7.0000   -2.1490 hc        1 MOL      0.066067
    176 H85         8.9400    6.8400   -2.9240 hc        1 MOL      0.066067
    177 N15         6.4320    4.6630    0.3390 n         1 MOL     -0.255104
    178 C54         6.8810    4.9910    1.7030 c3        1 MOL     -0.000214
    179 H86         6.5930    4.1890    2.3830 h1        1 MOL      0.038654
    180 H87         7.9650    5.1020    1.7120 h1        1 MOL      0.038654
    181 H88         6.4160    5.9230    2.0250 h1        1 MOL      0.038654
    182 H89         5.4390    4.4770    0.3160 hn        1 MOL      0.258938
    183 Ca1        -6.5400    4.5790    0.9980 Ca        1 MOL      1.698028
    184 O25        -7.4410    3.3400    3.2500 oh        1 MOL     -0.885442
    185 H90        -7.7490    3.2380    4.1560 ho        1 MOL      0.451783
    186 H91        -7.9760    2.7340    2.7430 ho        1 MOL      0.451783
@<TRIPOS>BOND
     1    1    2 1   
     2    1    4 1   
     3    1    5 1   
     4    1    6 1   
     5    2    3 2   
     6    2    7 1   
     7    7    8 1   
     8    7   15 1   
     9    8    9 1   
    10    8   11 1   
    11    8   16 1   
    12    9   10 2   
    13    9   19 1   
    14   11   12 1   
    15   11   17 1   
    16   11   18 1   
    17   12   13 1   
    18   12   14 1   
    19   19   20 1   
    20   19   28 1   
    21   20   21 1   
    22   20   23 1   
    23   20   29 1   
    24   21   22 2   
    25   21   41 1   
    26   23   24 1   
    27   23   30 1   
    28   23   31 1   
    29   24   25 1   
    30   24   32 1   
    31   24   33 1   
    32   25   26 1   
    33   25   34 1   
    34   25   35 1   
    35   26   27 1   
    36   26   36 1   
    37   26   37 1   
    38   27   38 1   
    39   27   39 1   
    40   27   40 1   
    41   41   42 1   
    42   41   49 1   
    43   42   43 1   
    44   42   45 1   
    45   42   50 1   
    46   43   44 2   
    47   43   53 1   
    48   45   46 1   
    49   45   51 1   
    50   45   52 1   
    51   46   47 1   
    52   46   48 1   
    53   53   54 1   
    54   53   57 1   
    55   54   55 1   
    56   54   58 1   
    57   54   59 1   
    58   55   56 2   
    59   55   60 1   
    60   60   61 1   
    61   60   68 1   
    62   61   62 1   
    63   61   64 1   
    64   61   69 1   
    65   62   63 2   
    66   62   72 1   
    67   64   65 1   
    68   64   70 1   
    69   64   71 1   
    70   65   66 1   
    71   65   67 1   
    72   72   73 1   
    73   72   76 1   
    74   73   74 1   
    75   73   77 1   
    76   73   78 1   
    77   74   75 2   
    78   74   79 1   
    79   79   80 1   
    80   79   86 1   
    81   80   81 1   
    82   80   83 1   
    83   80   87 1   
    84   81   82 2   
    85   81   93 1   
    86   83   84 1   
    87   83   85 1   
    88   83   88 1   
    89   84   90 1   
    90   84   91 1   
    91   84   92 1   
    92   85   89 1   
    93   93   94 1   
    94   93  101 1   
    95   94   95 1   
    96   94   97 1   
    97   94  102 1   
    98   95   96 2   
    99   95  112 1   
   100   97   98 1   
   101   97   99 1   
   102   97  103 1   
   103   98  100 1   
   104   98  104 1   
   105   98  105 1   
   106   99  106 1   
   107   99  107 1   
   108   99  108 1   
   109  100  109 1   
   110  100  110 1   
   111  100  111 1   
   112  112  113 1   
   113  112  119 1   
   114  113  114 1   
   115  113  116 1   
   116  113  120 1   
   117  114  115 2   
   118  114  126 1   
   119  116  117 1   
   120  116  118 1   
   121  116  121 1   
   122  117  123 1   
   123  117  124 1   
   124  117  125 1   
   125  118  122 1   
   126  126  127 1   
   127  126  133 1   
   128  127  128 1   
   129  127  130 1   
   130  127  134 1   
   131  128  129 2   
   132  128  140 1   
   133  130  131 1   
   134  130  132 1   
   135  130  135 1   
   136  131  137 1   
   137  131  138 1   
   138  131  139 1   
   139  132  136 1   
   140  140  141 1   
   141  140  149 1   
   142  141  142 1   
   143  141  144 1   
   144  141  150 1   
   145  142  143 2   
   146  142  162 1   
   147  144  145 1   
   148  144  151 1   
   149  144  152 1   
   150  145  146 1   
   151  145  153 1   
   152  145  154 1   
   153  146  147 1   
   154  146  155 1   
   155  146  156 1   
   156  147  148 1   
   157  147  157 1   
   158  147  158 1   
   159  148  159 1   
   160  148  160 1   
   161  148  161 1   
   162  162  163 1   
   163  162  171 1   
   164  163  164 1   
   165  163  166 1   
   166  163  172 1   
   167  164  165 2   
   168  164  177 1   
   169  166  167 1   
   170  166  173 1   
   171  166  174 1   
   172  167  168 1   
   173  167  175 1   
   174  167  176 1   
   175  168  169 1   
   176  168  170 1   
   177  177  178 1   
   178  177  182 1   
   179  178  179 1   
   180  178  180 1   
   181  178  181 1   
   182  184  185 1   
   183  184  186 1   
@<TRIPOS>SUBSTRUCTURE
     1 MOL         1 TEMP              0 ****  ****    0 ROOT
