@<TRIPOS>MOLECULE
MOL
  195   189     1     0     0
SMALL
resp


@<TRIPOS>ATOM
      1 C1          1.8130    3.2930    3.5430 c3        1 MOL     -0.538511
      2 C2          1.0960    3.4280    2.2120 c         1 MOL      0.675428
      3 O1          0.2310    2.6160    1.7740 o         1 MOL     -0.544733
      4 H1          2.8040    3.7400    3.4670 hc        1 MOL      0.139682
      5 H2          1.2420    3.8040    4.3170 hc        1 MOL      0.139682
      6 H3          1.9100    2.2380    3.7990 hc        1 MOL      0.139682
      7 N1          1.3870    4.5040    1.4650 n         1 MOL     -0.320640
      8 C3          0.6630    4.9850    0.2380 c3        1 MOL     -0.142062
      9 C4         -0.8510    4.7210    0.0730 c         1 MOL      0.747729
     10 O2         -1.3540    4.4980   -1.0360 o         1 MOL     -0.574513
     11 C5          1.3850    4.5920   -1.0610 c3        1 MOL     -0.094709
     12 C6          2.8960    4.8160   -0.9690 c         1 MOL      0.685211
     13 O3          3.3590    5.8150   -1.4900 o         1 MOL     -0.734944
     14 O4          3.7020    4.1580   -0.2580 o         1 MOL     -0.734944
     15 H4          2.0380    5.2040    1.8140 hn        1 MOL      0.189503
     16 H5          0.7160    6.0730    0.2360 h1        1 MOL      0.079928
     17 H6          1.0080    5.2190   -1.8730 hc        1 MOL      0.056273
     18 H7          1.1820    3.5840   -1.4110 hc        1 MOL      0.056273
     19 N2         -1.5470    4.7380    1.1940 n         1 MOL     -0.453646
     20 C7         -2.9840    4.5780    1.4030 c3        1 MOL     -0.018999
     21 C8         -3.6560    5.8720    0.8900 c         1 MOL      0.343886
     22 O5         -2.9910    6.9110    0.5790 o         1 MOL     -0.558181
     23 C9         -3.4530    4.3010    2.8010 c3        1 MOL      0.308973
     24 C10        -3.1860    5.4190    3.8040 c3        1 MOL     -0.007996
     25 C11        -2.9520    2.9620    3.2760 c3        1 MOL     -0.524091
     26 C12        -3.7830    5.0630    5.1420 c3        1 MOL     -0.126426
     27 H8         -1.0440    4.9830    2.0320 hn        1 MOL      0.203335
     28 H9         -3.3820    3.7010    0.8820 h1        1 MOL      0.138641
     29 H10        -4.5240    4.1090    2.8210 hc        1 MOL      0.051826
     30 H11        -3.6060    6.3550    3.4270 hc        1 MOL      0.000582
     31 H12        -2.1210    5.4920    4.0390 hc        1 MOL      0.000582
     32 H13        -3.5900    2.5560    4.0660 hc        1 MOL      0.123134
     33 H14        -2.9750    2.2300    2.4640 hc        1 MOL      0.123134
     34 H15        -1.9520    3.2520    3.6030 hc        1 MOL      0.123134
     35 H16        -3.3200    4.2340    5.6680 hc        1 MOL      0.021143
     36 H17        -3.9070    5.8890    5.8510 hc        1 MOL      0.021143
     37 H18        -4.7750    4.6580    4.9310 hc        1 MOL      0.021143
     38 N3         -4.9570    5.9120    0.5400 n         1 MOL     -0.326281
     39 C13        -5.9710    4.8730    0.5710 c3        1 MOL     -0.008685
     40 C14        -5.6860    3.7510   -0.3980 c         1 MOL      0.592302
     41 O6         -5.8490    2.5790    0.0010 o         1 MOL     -0.550228
     42 C15        -7.3500    5.5700    0.2040 c3        1 MOL     -0.269392
     43 C16        -8.6330    4.6870    0.0450 c         1 MOL      0.722198
     44 O7         -8.7630    3.7020    0.8170 o         1 MOL     -0.696149
     45 O8         -9.5690    4.9730   -0.7740 o         1 MOL     -0.696149
     46 H19        -5.3410    6.8450    0.4420 hn        1 MOL      0.265959
     47 H20        -6.1590    4.4660    1.5650 h1        1 MOL      0.059321
     48 H21        -7.2980    6.1820   -0.7070 hc        1 MOL      0.028245
     49 H22        -7.4980    6.2530    1.0390 hc        1 MOL      0.028245
     50 N4         -5.0600    4.1380   -1.5740 n         1 MOL     -0.326275
     51 C17        -4.7180    3.0500   -2.5180 c3        1 MOL     -0.343656
     52 C18        -5.7850    1.9640   -2.8510 c         1 MOL      0.510968
     53 O9         -6.9830    2.2790   -2.8890 o         1 MOL     -0.505376
     54 H23        -4.8140    5.1010   -1.7550 hn        1 MOL      0.300612
     55 H24        -3.9110    2.5030   -2.0290 h1        1 MOL      0.156056
     56 H25        -4.5080    3.5110   -3.4780 h1        1 MOL      0.156056
     57 N5         -5.3220    0.7360   -3.1170 n         1 MOL     -0.356155
     58 C19        -6.2530   -0.3040   -3.4810 c3        1 MOL      0.143662
     59 C20        -7.1100   -0.7510   -2.2480 c         1 MOL      0.305206
     60 O10        -8.1140   -1.3990   -2.5200 o         1 MOL     -0.512332
     61 C21        -5.3610   -1.4370   -4.0440 c3        1 MOL     -0.225084
     62 C22        -4.0600   -1.7230   -3.3090 c         1 MOL      0.738214
     63 O11        -2.9850   -1.1500   -3.6530 o         1 MOL     -0.685048
     64 O12        -4.0330   -2.5030   -2.3280 o         1 MOL     -0.685048
     65 H26        -4.3400    0.5540   -3.2400 hn        1 MOL      0.199045
     66 H27        -6.9070    0.1160   -4.2480 h1        1 MOL      0.058969
     67 H28        -5.1350   -1.2650   -5.0980 hc        1 MOL      0.019016
     68 H29        -5.9970   -2.3180   -3.9770 hc        1 MOL      0.019016
     69 N6         -6.7660   -0.3070   -1.0200 n         1 MOL      0.017996
     70 C23        -7.5140   -0.8410    0.1310 c3        1 MOL     -0.308360
     71 C24        -7.2160   -2.2890    0.4810 c         1 MOL      0.420448
     72 O13        -7.8040   -2.8250    1.4610 o         1 MOL     -0.572381
     73 H30        -5.9630    0.3040   -0.9040 hn        1 MOL      0.198726
     74 H31        -8.5900   -0.7240    0.0010 h1        1 MOL      0.160154
     75 H32        -7.2410   -0.2650    1.0240 h1        1 MOL      0.160154
     76 N7         -6.4300   -2.9110   -0.3430 n         1 MOL      0.050444
     77 C25        -6.0020   -4.3050   -0.2550 c3        1 MOL      0.027262
     78 C26        -5.5500   -4.7640    1.1420 c         1 MOL      0.651794
     79 O14        -5.9600   -5.8040    1.6120 o         1 MOL     -0.538917
     80 C27        -6.8820   -5.2920   -0.9470 c3        1 MOL     -0.079983
     81 C28        -7.0970   -4.8140   -2.4070 c3        1 MOL      0.103378
     82 C29        -7.8550   -5.6220   -3.3360 c         1 MOL      0.557284
     83 N8         -8.2150   -5.1530   -4.5000 n         1 MOL     -0.760845
     84 O15        -8.0630   -6.8470   -3.0940 o         1 MOL     -0.608018
     85 H33        -5.9490   -2.2970   -0.9860 hn        1 MOL     -0.057739
     86 H34        -5.1080   -4.4290   -0.8680 h1        1 MOL      0.075968
     87 H35        -7.8270   -5.3960   -0.4130 hc        1 MOL      0.016725
     88 H36        -6.4400   -6.2950   -0.9760 hc        1 MOL      0.016725
     89 H37        -6.1360   -4.7320   -2.9040 hc        1 MOL      0.008529
     90 H38        -7.5880   -3.8350   -2.4060 hc        1 MOL      0.008529
     91 H39        -8.0880   -4.1810   -4.7590 hn        1 MOL      0.346885
     92 H40        -8.6410   -5.8030   -5.1390 hn        1 MOL      0.346885
     93 N9         -4.5970   -4.0810    1.7370 n         1 MOL     -0.606430
     94 C30        -4.0480   -4.3900    3.0520 c3        1 MOL     -0.100813
     95 C31        -2.5890   -4.0610    3.2500 c         1 MOL      0.605099
     96 O16        -2.0620   -4.3360    4.3150 o         1 MOL     -0.614091
     97 C32        -4.8110   -3.6650    4.2280 c3        1 MOL      0.293759
     98 C33        -4.9810   -2.1700    3.9120 c3        1 MOL     -0.454058
     99 C34        -6.1970   -4.2160    4.4870 c3        1 MOL     -0.454058
    100 H41        -4.4380   -3.1750    1.3240 hn        1 MOL      0.305982
    101 H42        -4.1050   -5.4590    3.2530 h1        1 MOL      0.136441
    102 H43        -4.3040   -3.7780    5.1880 hc        1 MOL     -0.009822
    103 H44        -4.0070   -1.7010    3.7800 hc        1 MOL      0.113337
    104 H45        -5.6520   -2.1010    3.0590 hc        1 MOL      0.113337
    105 H46        -5.5220   -1.8300    4.7900 hc        1 MOL      0.113337
    106 H47        -6.9060   -3.6490    3.8860 hc        1 MOL      0.113337
    107 H48        -6.2280   -5.2670    4.2350 hc        1 MOL      0.113337
    108 H49        -6.5170   -4.0590    5.5110 hc        1 MOL      0.113337
    109 N10        -1.9200   -3.4680    2.2790 n         1 MOL     -0.493493
    110 C35        -0.4950   -3.2940    2.1320 c3        1 MOL      0.345039
    111 C36         0.1980   -3.7020    0.8290 c         1 MOL      0.482354
    112 O17        -0.4630   -4.2610   -0.0220 o         1 MOL     -0.529474
    113 C37        -0.1890   -1.7810    2.6170 c3        1 MOL     -0.226760
    114 C38         1.0620   -1.5830    3.4990 c         1 MOL      0.609403
    115 N11         0.8780   -1.1560    4.7180 n         1 MOL     -0.793047
    116 O18         2.1640   -1.7300    2.9920 o         1 MOL     -0.506980
    117 H50        -2.5430   -3.1790    1.5390 hn        1 MOL      0.278229
    118 H51         0.0500   -3.9560    2.8110 h1        1 MOL      0.022859
    119 H52        -0.9920   -1.4400    3.2700 hc        1 MOL      0.075796
    120 H53        -0.2020   -1.0670    1.7930 hc        1 MOL      0.075796
    121 H54        -0.0400   -1.1140    5.1550 hn        1 MOL      0.364207
    122 H55         1.6300   -0.8550    5.3280 hn        1 MOL      0.364207
    123 N12         1.4810   -3.3930    0.7050 n         1 MOL     -0.527427
    124 C39         2.4140   -3.5000   -0.4920 c3        1 MOL      0.100939
    125 C40         3.9000   -3.5360    0.0100 c         1 MOL      0.769664
    126 O19         4.1720   -2.7530    0.9180 o         1 MOL     -0.592684
    127 C41         2.2430   -2.2570   -1.4120 c3        1 MOL     -0.074183
    128 C42         3.1690   -2.0190   -2.6370 ca        1 MOL     -0.014992
    129 C43         4.1920   -1.0780   -2.5510 ca        1 MOL     -0.137277
    130 C44         3.1850   -2.9810   -3.6480 ca        1 MOL     -0.137277
    131 C45         5.2860   -1.0720   -3.4960 ca        1 MOL     -0.207104
    132 C46         4.1380   -2.8660   -4.6030 ca        1 MOL     -0.207104
    133 C47         5.2670   -2.0370   -4.5140 ca        1 MOL      0.315619
    134 O20         6.2000   -2.0130   -5.4710 oh        1 MOL     -0.525050
    135 H56         1.8260   -2.9690    1.5480 hn        1 MOL      0.242833
    136 H57         2.1660   -4.4630   -0.9420 h1        1 MOL      0.062527
    137 H58         2.4980   -1.4370   -0.7250 hc        1 MOL      0.077743
    138 H59         1.1770   -2.1500   -1.6420 hc        1 MOL      0.077743
    139 H60         4.2840   -0.4610   -1.6670 ha        1 MOL      0.126799
    140 H61         2.3550   -3.6880   -3.6380 ha        1 MOL      0.126799
    141 H62         6.0540   -0.3160   -3.4880 ha        1 MOL      0.125411
    142 H63         4.0670   -3.6600   -5.3300 ha        1 MOL      0.125411
    143 H64         6.9370   -1.4660   -5.1700 ho        1 MOL      0.388151
    144 N13         4.8090   -4.4050   -0.4610 n         1 MOL     -0.774336
    145 C48         6.2230   -4.4030    0.0070 c3        1 MOL      0.142937
    146 C49         7.0970   -3.8070   -1.0850 c         1 MOL      0.679231
    147 O21         7.6280   -4.4770   -1.9650 o         1 MOL     -0.589771
    148 C50         6.6950   -5.8270    0.2740 c3        1 MOL      0.209404
    149 C51         8.1140   -5.8440    0.8860 c3        1 MOL     -0.408144
    150 C52         8.4240   -7.3060    1.2520 c         1 MOL      0.670879
    151 O22         8.1480   -7.7210    2.4100 o         1 MOL     -0.675895
    152 O23         8.6950   -8.1920    0.3860 o         1 MOL     -0.675895
    153 H65         4.5620   -4.9780   -1.2560 hn        1 MOL      0.321785
    154 H66         6.2580   -3.8810    0.9600 h1        1 MOL      0.063494
    155 H67         6.7270   -6.5320   -0.5580 hc        1 MOL     -0.000109
    156 H68         5.9220   -6.2250    0.9310 hc        1 MOL     -0.000109
    157 H69         8.0740   -5.2490    1.7960 hc        1 MOL      0.089576
    158 H70         8.8610   -5.4810    0.1820 hc        1 MOL      0.089576
    159 N14         7.4610   -2.5220   -1.0560 n         1 MOL     -0.680794
    160 C53         7.0710   -1.4890   -0.0350 c3        1 MOL      0.193173
    161 C54         7.6140   -1.6660    1.3770 c         1 MOL      0.604557
    162 O24         8.6870   -2.2760    1.5150 o         1 MOL     -0.579594
    163 C55         7.5790   -0.1890   -0.5730 c3        1 MOL     -0.192532
    164 C56         7.2550    0.9780    0.3870 c3        1 MOL     -0.302796
    165 C57         7.7150    2.2280   -0.4240 c         1 MOL      0.733154
    166 O25         6.8640    2.9090   -1.0190 o         1 MOL     -0.712726
    167 O26         8.9280    2.6290   -0.3510 o         1 MOL     -0.712726
    168 H71         8.2060   -2.2640   -1.6770 hn        1 MOL      0.329269
    169 H72         5.9870   -1.5040    0.1030 h1        1 MOL      0.023969
    170 H73         7.0610   -0.0010   -1.5120 hc        1 MOL      0.080033
    171 H74         8.6490   -0.3590   -0.7110 hc        1 MOL      0.080033
    172 H75         7.8610    0.8680    1.2870 hc        1 MOL      0.059993
    173 H76         6.1750    1.0030    0.5200 hc        1 MOL      0.059993
    174 N15         6.8250   -1.1890    2.3420 n         1 MOL     -0.285295
    175 C58         7.0180   -1.3320    3.8420 c3        1 MOL     -0.192121
    176 H77         6.0910   -1.0730    4.3540 h1        1 MOL      0.090396
    177 H78         7.2880   -2.3620    4.0770 h1        1 MOL      0.090396
    178 H79         7.8140   -0.6630    4.1720 h1        1 MOL      0.090396
    179 H80         6.0050   -0.6990    1.9990 hn        1 MOL      0.265477
    180 Ca1         5.9430    5.4160   -0.7710 Ca        1 MOL      1.650203
    181 O27         8.0820    5.4760   -2.3530 oh        1 MOL     -0.784892
    182 H81         8.2990    6.0190   -3.1120 ho        1 MOL      0.374815
    183 H82         8.4930    4.6340   -2.5300 ho        1 MOL      0.374815
    184 O28         6.3740    4.4770    1.8100 oh        1 MOL     -0.784892
    185 H83         7.1410    4.7440    2.3160 ho        1 MOL      0.374815
    186 H84         5.8470    3.9780    2.4240 ho        1 MOL      0.374815
    187 O29         7.7600    6.8620    0.3650 oh        1 MOL     -0.784892
    188 H85         8.5610    6.9680   -0.1500 ho        1 MOL      0.374815
    189 H86         7.8720    7.4610    1.1060 ho        1 MOL      0.374815
    190 O30         5.5760    8.0760   -1.4600 oh        1 MOL     -0.784892
    191 H87         6.0960    8.8200   -1.1870 ho        1 MOL      0.374815
    192 H88         4.6760    8.3980   -1.4820 ho        1 MOL      0.374815
    193 O31         5.3800    5.2900   -3.4750 oh        1 MOL     -0.784892
    194 H89         4.8970    5.9290   -4.0060 ho        1 MOL      0.374815
    195 H90         5.0710    4.4360   -3.7920 ho        1 MOL      0.374815
@<TRIPOS>BOND
     1    1    2 1   
     2    1    4 1   
     3    1    5 1   
     4    1    6 1   
     5    2    3 2   
     6    2    7 1   
     7    7    8 1   
     8    7   15 1   
     9    8    9 1   
    10    8   11 1   
    11    8   16 1   
    12    9   10 2   
    13    9   19 1   
    14   11   12 1   
    15   11   17 1   
    16   11   18 1   
    17   12   13 1   
    18   12   14 1   
    19   19   20 1   
    20   19   27 1   
    21   20   21 1   
    22   20   23 1   
    23   20   28 1   
    24   21   22 2   
    25   21   38 1   
    26   23   24 1   
    27   23   25 1   
    28   23   29 1   
    29   24   26 1   
    30   24   30 1   
    31   24   31 1   
    32   25   32 1   
    33   25   33 1   
    34   25   34 1   
    35   26   35 1   
    36   26   36 1   
    37   26   37 1   
    38   38   39 1   
    39   38   46 1   
    40   39   40 1   
    41   39   42 1   
    42   39   47 1   
    43   40   41 2   
    44   40   50 1   
    45   42   43 1   
    46   42   48 1   
    47   42   49 1   
    48   43   44 1   
    49   43   45 1   
    50   50   51 1   
    51   50   54 1   
    52   51   52 1   
    53   51   55 1   
    54   51   56 1   
    55   52   53 2   
    56   52   57 1   
    57   57   58 1   
    58   57   65 1   
    59   58   59 1   
    60   58   61 1   
    61   58   66 1   
    62   59   60 2   
    63   59   69 1   
    64   61   62 1   
    65   61   67 1   
    66   61   68 1   
    67   62   63 1   
    68   62   64 1   
    69   69   70 1   
    70   69   73 1   
    71   70   71 1   
    72   70   74 1   
    73   70   75 1   
    74   71   72 2   
    75   71   76 1   
    76   76   77 1   
    77   76   85 1   
    78   77   78 1   
    79   77   80 1   
    80   77   86 1   
    81   78   79 2   
    82   78   93 1   
    83   80   81 1   
    84   80   87 1   
    85   80   88 1   
    86   81   82 1   
    87   81   89 1   
    88   81   90 1   
    89   82   83 1   
    90   82   84 2   
    91   83   91 1   
    92   83   92 1   
    93   93   94 1   
    94   93  100 1   
    95   94   95 1   
    96   94   97 1   
    97   94  101 1   
    98   95   96 2   
    99   95  109 1   
   100   97   98 1   
   101   97   99 1   
   102   97  102 1   
   103   98  103 1   
   104   98  104 1   
   105   98  105 1   
   106   99  106 1   
   107   99  107 1   
   108   99  108 1   
   109  109  110 1   
   110  109  117 1   
   111  110  111 1   
   112  110  113 1   
   113  110  118 1   
   114  111  112 2   
   115  111  123 1   
   116  113  114 1   
   117  113  119 1   
   118  113  120 1   
   119  114  115 1   
   120  114  116 2   
   121  115  121 1   
   122  115  122 1   
   123  123  124 1   
   124  123  135 1   
   125  124  125 1   
   126  124  127 1   
   127  124  136 1   
   128  125  126 2   
   129  125  144 1   
   130  127  128 1   
   131  127  137 1   
   132  127  138 1   
   133  128  129 ar  
   134  128  130 ar  
   135  129  131 ar  
   136  129  139 1   
   137  130  132 ar  
   138  130  140 1   
   139  131  133 ar  
   140  131  141 1   
   141  132  133 ar  
   142  132  142 1   
   143  133  134 1   
   144  134  143 1   
   145  144  145 1   
   146  144  153 1   
   147  145  146 1   
   148  145  148 1   
   149  145  154 1   
   150  146  147 2   
   151  146  159 1   
   152  148  149 1   
   153  148  155 1   
   154  148  156 1   
   155  149  150 1   
   156  149  157 1   
   157  149  158 1   
   158  150  151 1   
   159  150  152 1   
   160  159  160 1   
   161  159  168 1   
   162  160  161 1   
   163  160  163 1   
   164  160  169 1   
   165  161  162 2   
   166  161  174 1   
   167  163  164 1   
   168  163  170 1   
   169  163  171 1   
   170  164  165 1   
   171  164  172 1   
   172  164  173 1   
   173  165  166 1   
   174  165  167 1   
   175  174  175 1   
   176  174  179 1   
   177  175  176 1   
   178  175  177 1   
   179  175  178 1   
   180  181  182 1   
   181  181  183 1   
   182  184  185 1   
   183  184  186 1   
   184  187  188 1   
   185  187  189 1   
   186  190  191 1   
   187  190  192 1   
   188  193  194 1   
   189  193  195 1   
@<TRIPOS>SUBSTRUCTURE
     1 MOL         1 TEMP              0 ****  ****    0 ROOT
