@<TRIPOS>MOLECULE
MOL
  186   183     1     0     0
SMALL
resp


@<TRIPOS>ATOM
      1 C1          8.4140    0.2550    2.4210 c3        1 MOL     -0.559285
      2 C2          7.5040    0.4440    1.2370 c         1 MOL      0.838614
      3 O1          6.2630    0.3910    1.3530 o         1 MOL     -0.695692
      4 H1          7.8560    0.4370    3.3400 hc        1 MOL      0.141968
      5 H2          8.7980   -0.7650    2.4260 hc        1 MOL      0.141968
      6 H3          9.2460    0.9560    2.3570 hc        1 MOL      0.141968
      7 N1          8.0650    0.6270    0.0330 n         1 MOL     -0.526713
      8 C3          7.3040    0.8350   -1.1850 c3        1 MOL      0.017664
      9 C4          6.7880   -0.4970   -1.7800 c         1 MOL      0.606509
     10 O2          6.4390   -0.5470   -2.9680 o         1 MOL     -0.474206
     11 C5          8.0980    1.7660   -2.1770 c3        1 MOL     -0.307101
     12 C6          9.5780    1.4630   -2.3590 c         1 MOL      0.794415
     13 O3          9.9630    0.5310   -3.1100 o         1 MOL     -0.704710
     14 O4         10.3830    2.1090   -1.6690 o         1 MOL     -0.704710
     15 H4          9.0790    0.6190   -0.0190 hn        1 MOL      0.291486
     16 H5          6.3590    1.3540   -1.0120 h1        1 MOL      0.085532
     17 H6          8.0100    2.7830   -1.8080 hc        1 MOL      0.083819
     18 H7          7.6750    1.8520   -3.1760 hc        1 MOL      0.083819
     19 N2          6.7190   -1.5450   -0.9180 n         1 MOL     -0.458690
     20 C7          6.3080   -2.9150   -1.3000 c3        1 MOL      0.040888
     21 C8          4.9720   -2.8990   -2.0120 c         1 MOL      0.440321
     22 O5          4.8860   -3.5800   -3.0300 o         1 MOL     -0.542709
     23 C9          6.1880   -3.8740   -0.1140 c3        1 MOL     -0.083204
     24 C10         7.5750   -4.4580    0.3010 c3        1 MOL      0.127133
     25 C11         7.5560   -5.6830    1.1890 c3        1 MOL     -0.115606
     26 C12         8.9920   -5.8630    1.7640 c3        1 MOL      0.236773
     27 N3          9.0200   -7.1580    2.5190 n4        1 MOL     -0.524777
     28 H8          6.9890   -1.3690    0.0470 hn        1 MOL      0.216641
     29 H9          6.9940   -3.3480   -2.0120 h1        1 MOL      0.099642
     30 H10         5.5900   -4.7460   -0.3770 hc        1 MOL      0.041444
     31 H11         5.7110   -3.4610    0.7760 hc        1 MOL      0.041444
     32 H12         8.1920   -3.6970    0.7750 hc        1 MOL     -0.009291
     33 H13         8.1290   -4.7740   -0.5870 hc        1 MOL     -0.009291
     34 H14         7.3090   -6.5400    0.5630 hc        1 MOL      0.042373
     35 H15         6.8560   -5.5590    2.0210 hc        1 MOL      0.042373
     36 H16         9.1880   -5.0500    2.4520 hx        1 MOL      0.038346
     37 H17         9.7350   -5.7890    0.9700 hx        1 MOL      0.038346
     38 H18         9.9210   -7.3990    2.9280 hn        1 MOL      0.361157
     39 H19         8.3310   -7.0600    3.2470 hn        1 MOL      0.361157
     40 H20         8.8590   -7.9790    1.9510 hn        1 MOL      0.361157
     41 N4          3.9550   -2.0930   -1.6510 n         1 MOL     -0.224329
     42 C13         3.6750   -1.3960   -0.3560 c3        1 MOL     -0.128450
     43 C14         3.1420    0.0350   -0.5980 c         1 MOL      0.337593
     44 O6          2.4610    0.3740   -1.5330 o         1 MOL     -0.454533
     45 C15         2.7050   -2.1980    0.4390 c3        1 MOL     -0.399697
     46 C16         1.3530   -2.4360   -0.1050 c         1 MOL      0.913164
     47 O7          0.8740   -1.6250   -0.8950 o         1 MOL     -0.749881
     48 O8          0.6260   -3.4350    0.2800 o         1 MOL     -0.749881
     49 H21         3.1270   -2.2070   -2.2190 hn        1 MOL      0.292052
     50 H22         4.5100   -1.4500    0.3350 h1        1 MOL      0.136134
     51 H23         2.5150   -1.5830    1.3230 hc        1 MOL      0.102488
     52 H24         3.2630   -3.0380    0.8280 hc        1 MOL      0.102488
     53 N5          3.6530    0.9750    0.2270 n         1 MOL     -0.030565
     54 C17         3.7280    2.3770   -0.0700 c3        1 MOL     -0.183822
     55 C18         2.3820    3.0450   -0.2220 c         1 MOL      0.672454
     56 O9          1.3210    2.4030   -0.1290 o         1 MOL     -0.633448
     57 H25         4.2860    0.7110    0.9750 hn        1 MOL      0.215467
     58 H26         4.1880    2.5040   -1.0480 h1        1 MOL      0.089776
     59 H27         4.2160    2.8560    0.7840 h1        1 MOL      0.089776
     60 N6          2.3670    4.2540   -0.7330 n         1 MOL     -0.508483
     61 C19         1.1490    5.0660   -0.9860 c3        1 MOL      0.496911
     62 C20         1.3490    6.5430   -0.5450 c         1 MOL      0.337342
     63 O10         2.4820    6.9890   -0.3330 o         1 MOL     -0.497431
     64 C21         0.8010    4.8820   -2.4370 c3        1 MOL     -0.413488
     65 C22         0.7780    3.5690   -3.0620 c         1 MOL      0.754071
     66 O11         1.4720    3.2520   -4.0520 o         1 MOL     -0.648313
     67 O12         0.0480    2.7070   -2.5310 o         1 MOL     -0.648313
     68 H28         3.2790    4.6670   -0.8850 hn        1 MOL      0.260849
     69 H29         0.4540    4.5480   -0.3240 h1        1 MOL     -0.074810
     70 H30         1.4920    5.4390   -3.0670 hc        1 MOL      0.084010
     71 H31        -0.1350    5.3790   -2.7060 hc        1 MOL      0.084010
     72 N7          0.2610    7.3430   -0.2810 n         1 MOL     -0.415150
     73 C23        -1.1380    6.9260   -0.2290 c3        1 MOL     -0.155236
     74 C24        -1.3460    5.8430    0.8070 c         1 MOL      0.619404
     75 O13        -0.6020    5.8160    1.8610 o         1 MOL     -0.513207
     76 H32         0.5640    8.2150    0.1290 hn        1 MOL      0.313256
     77 H33        -1.3630    6.6150   -1.2520 h1        1 MOL      0.114912
     78 H34        -1.7180    7.8360   -0.0680 h1        1 MOL      0.114912
     79 N8         -2.4300    4.9970    0.7510 n         1 MOL     -0.649175
     80 C25        -2.7450    3.9750    1.7400 c3        1 MOL      0.087734
     81 C26        -1.5610    2.9690    1.8620 c         1 MOL      0.563901
     82 O14        -1.2180    2.3700    0.8560 o         1 MOL     -0.422544
     83 C27        -4.1580    3.4100    1.4330 c3        1 MOL      0.262690
     84 C28        -4.4660    2.2220    2.2670 c3        1 MOL     -0.278327
     85 O15        -4.2770    3.0690    0.0230 oh        1 MOL     -0.580016
     86 H35        -2.9390    4.9570   -0.1190 hn        1 MOL      0.353436
     87 H36        -2.9210    4.4660    2.7030 h1        1 MOL      0.053078
     88 H37        -4.8690    4.1840    1.7010 h1        1 MOL      0.035585
     89 H38        -5.1530    2.6760   -0.0050 ho        1 MOL      0.393456
     90 H39        -3.9020    1.3960    1.8440 hc        1 MOL      0.052425
     91 H40        -4.1510    2.4190    3.2950 hc        1 MOL      0.052425
     92 H41        -5.5400    2.1060    2.1440 hc        1 MOL      0.052425
     93 N9         -1.1670    2.5950    3.1090 n         1 MOL     -0.493740
     94 C29        -0.2720    1.4430    3.4470 c3        1 MOL      0.035160
     95 C30        -0.6100    0.1390    2.6690 c         1 MOL      0.432188
     96 O16        -0.1780   -0.0820    1.5470 o         1 MOL     -0.485273
     97 C31         1.2670    1.8450    3.3700 c3        1 MOL      0.522353
     98 C32         1.7490    3.1930    3.9260 c3        1 MOL     -0.205940
     99 C33         2.1910    0.7250    3.7840 c3        1 MOL     -0.594353
    100 C34         1.5800    3.2440    5.4710 c3        1 MOL     -0.147980
    101 H42        -1.5580    3.1340    3.8690 hn        1 MOL      0.273150
    102 H43        -0.4560    1.1610    4.4850 h1        1 MOL      0.022810
    103 H44         1.4770    1.9560    2.3030 hc        1 MOL     -0.192899
    104 H45         1.2510    4.0540    3.4770 hc        1 MOL      0.087401
    105 H46         2.7730    3.2690    3.5680 hc        1 MOL      0.087401
    106 H47         2.0260   -0.1060    3.1000 hc        1 MOL      0.134262
    107 H48         3.2140    1.0710    3.9110 hc        1 MOL      0.134262
    108 H49         1.7420    0.4880    4.7470 hc        1 MOL      0.134262
    109 H50         2.0930    2.4540    6.0060 hc        1 MOL      0.032862
    110 H51         1.9820    4.1960    5.8240 hc        1 MOL      0.032862
    111 H52         0.5110    3.1880    5.6690 hc        1 MOL      0.032862
    112 N10        -1.4200   -0.8100    3.1450 n         1 MOL     -0.298712
    113 C35        -1.7560   -2.0830    2.4690 c3        1 MOL     -0.027975
    114 C36        -3.2340   -2.2520    2.1530 c         1 MOL      0.481335
    115 O17        -3.6060   -3.0750    1.3280 o         1 MOL     -0.575525
    116 C37        -1.1910   -3.3580    3.1190 c3        1 MOL      0.431713
    117 C38        -1.6860   -3.5380    4.5310 c3        1 MOL     -0.382021
    118 O18         0.1720   -3.3240    3.0500 oh        1 MOL     -0.595061
    119 H53        -1.8140   -0.6220    4.0560 hn        1 MOL      0.194616
    120 H54        -1.2940   -2.0670    1.4700 h1        1 MOL      0.101568
    121 H55        -1.5330   -4.2240    2.5560 h1        1 MOL      0.008631
    122 H56         0.3040   -3.3500    2.0950 ho        1 MOL      0.323159
    123 H57        -2.7680   -3.4780    4.5690 hc        1 MOL      0.079226
    124 H58        -1.4190   -4.5650    4.7730 hc        1 MOL      0.079226
    125 H59        -1.2110   -2.8630    5.2360 hc        1 MOL      0.079226
    126 N11        -4.1500   -1.5760    2.8810 n         1 MOL     -0.321542
    127 C39        -5.6130   -1.8010    2.6740 c3        1 MOL      0.099045
    128 C40        -6.0280   -1.6020    1.2160 c         1 MOL      0.797439
    129 O19        -5.8430   -0.4170    0.7560 o         1 MOL     -0.560362
    130 C41        -6.3650   -0.7550    3.5350 c3        1 MOL      0.230350
    131 C42        -7.8440   -0.6400    3.1850 c3        1 MOL     -0.273321
    132 O20        -6.2980   -1.0310    4.8610 oh        1 MOL     -0.629740
    133 H60        -3.8970   -0.8850    3.5730 hn        1 MOL      0.263062
    134 H61        -5.9260   -2.8060    2.9400 h1        1 MOL      0.010991
    135 H62        -5.8350    0.1520    3.2370 h1        1 MOL      0.008289
    136 H63        -7.0850   -0.6300    5.2420 ho        1 MOL      0.414783
    137 H64        -8.2840   -1.6310    3.1140 hc        1 MOL      0.060375
    138 H65        -8.4070   -0.1250    3.9590 hc        1 MOL      0.060375
    139 H66        -8.0100   -0.2090    2.1950 hc        1 MOL      0.060375
    140 N12        -6.6680   -2.5890    0.5890 n         1 MOL     -0.733400
    141 C43        -7.1730   -2.5530   -0.7590 c3        1 MOL      0.200356
    142 C44        -6.1380   -2.2270   -1.7790 c         1 MOL      0.378198
    143 O21        -6.4530   -1.6510   -2.8300 o         1 MOL     -0.485338
    144 C45        -8.5770   -1.8800   -0.8710 c3        1 MOL     -0.035657
    145 C46        -9.4450   -2.1150   -2.0720 c3        1 MOL     -0.325063
    146 C47       -10.6870   -1.2110   -1.8470 c3        1 MOL      0.276428
    147 C48       -11.5170   -1.2450   -3.1430 c3        1 MOL      0.000886
    148 N13       -12.7990   -0.5000   -2.9940 n4        1 MOL     -0.076859
    149 H67        -6.9470   -3.3960    1.1090 hn        1 MOL      0.341927
    150 H68        -7.3410   -3.5900   -1.0470 h1        1 MOL      0.063964
    151 H69        -8.4260   -0.8100   -0.7880 hc        1 MOL      0.041928
    152 H70        -9.2130   -2.1740   -0.0350 hc        1 MOL      0.041928
    153 H71        -9.7040   -3.1740   -2.1270 hc        1 MOL      0.110255
    154 H72        -8.9330   -1.6910   -2.9340 hc        1 MOL      0.110255
    155 H73       -10.4650   -0.1720   -1.6110 hc        1 MOL     -0.049295
    156 H74       -11.3480   -1.6230   -1.0860 hc        1 MOL     -0.049295
    157 H75       -11.7060   -2.2850   -3.4170 hx        1 MOL      0.063820
    158 H76       -10.8770   -0.8240   -3.9260 hx        1 MOL      0.063820
    159 H77       -13.3590   -0.6190   -2.1630 hn        1 MOL      0.145992
    160 H78       -12.5770    0.4790   -2.9290 hn        1 MOL      0.145992
    161 H79       -13.4840   -0.6300   -3.7330 hn        1 MOL      0.145992
    162 N14        -4.8990   -2.7000   -1.6310 n         1 MOL     -0.491982
    163 C49        -3.6590   -2.1900   -2.2980 c3        1 MOL      0.156881
    164 C50        -2.3890   -2.3760   -1.4370 c         1 MOL      0.093804
    165 O22        -2.0890   -1.4220   -0.7650 o         1 MOL     -0.519790
    166 C51        -3.4260   -2.6060   -3.8080 c3        1 MOL     -0.139109
    167 C52        -2.2280   -1.9310   -4.5360 c3        1 MOL     -0.164160
    168 C53        -2.0300   -0.4620   -4.1930 c         1 MOL      0.699796
    169 O23        -1.1170   -0.1290   -3.3950 o         1 MOL     -0.654457
    170 O24        -2.7990    0.4320   -4.6280 o         1 MOL     -0.654457
    171 H80        -4.7190   -3.2420   -0.8020 hn        1 MOL      0.345484
    172 H81        -3.7980   -1.1040   -2.3310 h1        1 MOL      0.126345
    173 H82        -4.3250   -2.3670   -4.3800 hc        1 MOL      0.064181
    174 H83        -3.3140   -3.6840   -3.9470 hc        1 MOL      0.064181
    175 H84        -2.4320   -2.0770   -5.6090 hc        1 MOL      0.040571
    176 H85        -1.3180   -2.4820   -4.2710 hc        1 MOL      0.040571
    177 N15        -1.6970   -3.4850   -1.4010 n         1 MOL      0.051226
    178 C54        -1.8670   -4.8300   -1.9140 c3        1 MOL     -0.236873
    179 H86        -0.8900   -5.2930   -2.0500 h1        1 MOL      0.083082
    180 H87        -2.4530   -5.4170   -1.2070 h1        1 MOL      0.083082
    181 H88        -2.3860   -4.7920   -2.8720 h1        1 MOL      0.083082
    182 H89        -0.9110   -3.3580   -0.7770 hn        1 MOL      0.227113
    183 Ca1        -0.3690    0.7050   -1.0720 Ca        1 MOL      1.720796
    184 O25        -2.9290    1.6050   -1.5940 oh        1 MOL     -0.961358
    185 H90        -3.2930    1.7980   -0.7330 ho        1 MOL      0.461943
    186 H91        -3.6860    1.5010   -2.1650 ho        1 MOL      0.461943
@<TRIPOS>BOND
     1    1    2 1   
     2    1    4 1   
     3    1    5 1   
     4    1    6 1   
     5    2    3 2   
     6    2    7 1   
     7    7    8 1   
     8    7   15 1   
     9    8    9 1   
    10    8   11 1   
    11    8   16 1   
    12    9   10 2   
    13    9   19 1   
    14   11   12 1   
    15   11   17 1   
    16   11   18 1   
    17   12   13 1   
    18   12   14 1   
    19   19   20 1   
    20   19   28 1   
    21   20   21 1   
    22   20   23 1   
    23   20   29 1   
    24   21   22 2   
    25   21   41 1   
    26   23   24 1   
    27   23   30 1   
    28   23   31 1   
    29   24   25 1   
    30   24   32 1   
    31   24   33 1   
    32   25   26 1   
    33   25   34 1   
    34   25   35 1   
    35   26   27 1   
    36   26   36 1   
    37   26   37 1   
    38   27   38 1   
    39   27   39 1   
    40   27   40 1   
    41   41   42 1   
    42   41   49 1   
    43   42   43 1   
    44   42   45 1   
    45   42   50 1   
    46   43   44 2   
    47   43   53 1   
    48   45   46 1   
    49   45   51 1   
    50   45   52 1   
    51   46   47 1   
    52   46   48 1   
    53   53   54 1   
    54   53   57 1   
    55   54   55 1   
    56   54   58 1   
    57   54   59 1   
    58   55   56 2   
    59   55   60 1   
    60   60   61 1   
    61   60   68 1   
    62   61   62 1   
    63   61   64 1   
    64   61   69 1   
    65   62   63 2   
    66   62   72 1   
    67   64   65 1   
    68   64   70 1   
    69   64   71 1   
    70   65   66 1   
    71   65   67 1   
    72   72   73 1   
    73   72   76 1   
    74   73   74 1   
    75   73   77 1   
    76   73   78 1   
    77   74   75 2   
    78   74   79 1   
    79   79   80 1   
    80   79   86 1   
    81   80   81 1   
    82   80   83 1   
    83   80   87 1   
    84   81   82 2   
    85   81   93 1   
    86   83   84 1   
    87   83   85 1   
    88   83   88 1   
    89   84   90 1   
    90   84   91 1   
    91   84   92 1   
    92   85   89 1   
    93   93   94 1   
    94   93  101 1   
    95   94   95 1   
    96   94   97 1   
    97   94  102 1   
    98   95   96 2   
    99   95  112 1   
   100   97   98 1   
   101   97   99 1   
   102   97  103 1   
   103   98  100 1   
   104   98  104 1   
   105   98  105 1   
   106   99  106 1   
   107   99  107 1   
   108   99  108 1   
   109  100  109 1   
   110  100  110 1   
   111  100  111 1   
   112  112  113 1   
   113  112  119 1   
   114  113  114 1   
   115  113  116 1   
   116  113  120 1   
   117  114  115 2   
   118  114  126 1   
   119  116  117 1   
   120  116  118 1   
   121  116  121 1   
   122  117  123 1   
   123  117  124 1   
   124  117  125 1   
   125  118  122 1   
   126  126  127 1   
   127  126  133 1   
   128  127  128 1   
   129  127  130 1   
   130  127  134 1   
   131  128  129 2   
   132  128  140 1   
   133  130  131 1   
   134  130  132 1   
   135  130  135 1   
   136  131  137 1   
   137  131  138 1   
   138  131  139 1   
   139  132  136 1   
   140  140  141 1   
   141  140  149 1   
   142  141  142 1   
   143  141  144 1   
   144  141  150 1   
   145  142  143 2   
   146  142  162 1   
   147  144  145 1   
   148  144  151 1   
   149  144  152 1   
   150  145  146 1   
   151  145  153 1   
   152  145  154 1   
   153  146  147 1   
   154  146  155 1   
   155  146  156 1   
   156  147  148 1   
   157  147  157 1   
   158  147  158 1   
   159  148  159 1   
   160  148  160 1   
   161  148  161 1   
   162  162  163 1   
   163  162  171 1   
   164  163  164 1   
   165  163  166 1   
   166  163  172 1   
   167  164  165 2   
   168  164  177 1   
   169  166  167 1   
   170  166  173 1   
   171  166  174 1   
   172  167  168 1   
   173  167  175 1   
   174  167  176 1   
   175  168  169 1   
   176  168  170 1   
   177  177  178 1   
   178  177  182 1   
   179  178  179 1   
   180  178  180 1   
   181  178  181 1   
   182  184  185 1   
   183  184  186 1   
@<TRIPOS>SUBSTRUCTURE
     1 MOL         1 TEMP              0 ****  ****    0 ROOT
