@<TRIPOS>MOLECULE
MOL
  187   181     1     0     0
SMALL
resp


@<TRIPOS>ATOM
      1 C1          1.9250   -1.7230    4.5480 c3        1 MOL     -0.364014
      2 C2          2.9370   -0.9960    3.7370 c         1 MOL      0.568283
      3 O1          2.5690   -0.7480    2.5750 o         1 MOL     -0.554566
      4 H1          2.2640   -1.7840    5.5820 hc        1 MOL      0.098173
      5 H2          0.9750   -1.1900    4.5090 hc        1 MOL      0.098173
      6 H3          1.7940   -2.7300    4.1500 hc        1 MOL      0.098173
      7 N1          4.2170   -0.7740    4.1490 n         1 MOL     -0.360162
      8 C3          5.2020    0.0020    3.4150 c3        1 MOL      0.126975
      9 C4          5.9400   -0.8060    2.2770 c         1 MOL      0.441882
     10 O2          6.4740   -0.1290    1.3650 o         1 MOL     -0.519374
     11 C5          6.1950    0.7050    4.3780 c3        1 MOL     -0.268729
     12 C6          6.5700   -0.0280    5.6850 c         1 MOL      0.716919
     13 O3          7.2680    0.5810    6.4670 o         1 MOL     -0.708658
     14 O4          6.3360   -1.2430    5.9080 o         1 MOL     -0.708658
     15 H4          4.4590   -1.1700    5.0400 hn        1 MOL      0.201232
     16 H5          4.5770    0.7420    2.9220 h1        1 MOL      0.022099
     17 H6          5.8790    1.6990    4.6880 hc        1 MOL      0.075874
     18 H7          7.0700    0.8630    3.7540 hc        1 MOL      0.075874
     19 N2          6.0430   -2.1470    2.3580 n         1 MOL     -0.433909
     20 C7          7.1670   -2.9480    1.6680 c3        1 MOL      0.177493
     21 C8          7.1330   -2.7980    0.1120 c         1 MOL      0.657409
     22 O5          8.1100   -2.6090   -0.6050 o         1 MOL     -0.529848
     23 C9          8.5720   -2.5570    2.2240 c3        1 MOL     -0.245386
     24 H8          5.5600   -2.6460    3.0860 hn        1 MOL      0.272653
     25 H9          7.0060   -3.9830    1.9470 h1        1 MOL      0.053885
     26 H10         8.6590   -1.4810    2.3780 hc        1 MOL      0.071903
     27 H11         8.7680   -3.0760    3.1640 hc        1 MOL      0.071903
     28 H12         9.2610   -2.9260    1.4620 hc        1 MOL      0.071903
     29 N3          5.9420   -2.6880   -0.4430 n         1 MOL     -0.667359
     30 C10         5.5970   -2.3620   -1.8260 c3        1 MOL      0.137146
     31 C11         6.0870   -1.0050   -2.2790 c         1 MOL      0.557949
     32 O6          6.3460   -0.8360   -3.4420 o         1 MOL     -0.551878
     33 C12         6.0660   -3.4980   -2.7730 c3        1 MOL     -0.277641
     34 C13         5.6920   -4.8800   -2.3540 c         1 MOL      0.757092
     35 O7          6.5760   -5.7670   -2.2930 o         1 MOL     -0.731864
     36 O8          4.5090   -5.1990   -2.1000 o         1 MOL     -0.731864
     37 H13         5.0990   -2.6780    0.1160 hn        1 MOL      0.300194
     38 H14         4.5150   -2.2420   -1.9120 h1        1 MOL     -0.022183
     39 H15         7.1290   -3.4380   -2.9710 hc        1 MOL      0.062244
     40 H16         5.4800   -3.2370   -3.6640 hc        1 MOL      0.062244
     41 N4          6.1830   -0.0520   -1.3480 n         1 MOL     -0.074173
     42 C14         6.7660    1.1500   -1.7480 c3        1 MOL     -0.256590
     43 C15         5.8110    2.1440   -2.4100 c         1 MOL      0.532287
     44 O9          6.3130    3.0620   -3.1380 o         1 MOL     -0.575036
     45 H17         6.1550   -0.3360   -0.3700 hn        1 MOL      0.148938
     46 H18         7.5410    0.8970   -2.4670 h1        1 MOL      0.117384
     47 H19         7.2610    1.5720   -0.8730 h1        1 MOL      0.117384
     48 N5          4.5180    1.8700   -2.3290 n         1 MOL     -0.315491
     49 C16         3.5280    2.6500   -3.1360 c3        1 MOL      0.161977
     50 C17         3.1770    3.9600   -2.4730 c         1 MOL      0.484406
     51 O10         3.2400    4.0260   -1.2420 o         1 MOL     -0.492362
     52 C18         2.2410    1.8850   -3.5190 c3        1 MOL     -0.305221
     53 C19         2.6550    0.5590   -4.1340 c         1 MOL      0.765430
     54 N6          2.5290   -0.4760   -3.3400 n         1 MOL     -0.911328
     55 O11         2.8560    0.4800   -5.3300 o         1 MOL     -0.591217
     56 H20         4.2920    1.1530   -1.6610 hn        1 MOL      0.157014
     57 H21         4.0070    2.9160   -4.0730 h1        1 MOL      0.006858
     58 H22         1.7590    2.5190   -4.2660 hc        1 MOL      0.094210
     59 H23         1.5470    1.7150   -2.6990 hc        1 MOL      0.094210
     60 H24         2.5630   -0.3190   -2.3380 hn        1 MOL      0.417529
     61 H25         2.3680   -1.3990   -3.7020 hn        1 MOL      0.417529
     62 N7          2.8740    5.0110   -3.2290 n         1 MOL     -0.418152
     63 C20         2.4970    6.3450   -2.6410 c3        1 MOL     -0.262793
     64 C21         1.1560    6.3320   -1.8750 c         1 MOL      0.683964
     65 O12         0.3450    5.4970   -2.3230 o         1 MOL     -0.512190
     66 H26         2.7690    4.8170   -4.2180 hn        1 MOL      0.319035
     67 H27         2.3420    6.9940   -3.4930 h1        1 MOL      0.129916
     68 H28         3.3300    6.7270   -2.0460 h1        1 MOL      0.129916
     69 N8          0.8370    7.3200   -1.0590 n         1 MOL     -0.498035
     70 C22        -0.4500    7.6570   -0.4250 c3        1 MOL     -0.283523
     71 C23        -1.0960    6.5720    0.4330 c         1 MOL      0.502901
     72 O13        -2.2620    6.7840    0.9110 o         1 MOL     -0.546215
     73 C24        -0.2030    8.9580    0.4360 c3        1 MOL      0.467549
     74 C25         0.8890    8.7540    1.5160 c3        1 MOL     -0.288154
     75 O14         0.1830   10.1190   -0.3510 oh        1 MOL     -0.613473
     76 H29         1.6200    7.9390   -0.9010 hn        1 MOL      0.288885
     77 H30        -1.1410    7.8180   -1.2550 h1        1 MOL      0.162579
     78 H31        -1.1590    9.1670    0.9110 h1        1 MOL     -0.022064
     79 H32        -0.5360   10.3090   -0.9630 ho        1 MOL      0.369174
     80 H33         1.7750    8.3350    1.0380 hc        1 MOL      0.087797
     81 H34         1.1140    9.7120    1.9800 hc        1 MOL      0.087797
     82 H35         0.3890    8.1090    2.2360 hc        1 MOL      0.087797
     83 N9         -0.3900    5.4590    0.7150 n         1 MOL     -0.291548
     84 C26        -0.9170    4.2570    1.4230 c3        1 MOL      0.190419
     85 C27        -0.9910    2.9960    0.4740 c         1 MOL      0.488724
     86 O15        -0.4230    2.9660   -0.6350 o         1 MOL     -0.477708
     87 C28        -0.1830    4.0080    2.7490 c3        1 MOL      0.004048
     88 C29         1.3910    3.7820    2.6900 c3        1 MOL     -0.125383
     89 C30        -0.3440    5.2690    3.6430 c3        1 MOL     -0.304876
     90 C31         1.8030    2.5030    1.9300 c3        1 MOL     -0.073597
     91 H36         0.3150    5.2860    0.0150 hn        1 MOL      0.214503
     92 H37        -1.9670    4.4740    1.6460 h1        1 MOL      0.016361
     93 H38        -0.6680    3.1950    3.3040 hc        1 MOL      0.055550
     94 H39         1.8350    3.8020    3.6800 hc        1 MOL      0.042952
     95 H40         1.8650    4.5870    2.1400 hc        1 MOL      0.042952
     96 H41        -0.1850    4.9280    4.6620 hc        1 MOL      0.074496
     97 H42         0.3910    6.0140    3.3370 hc        1 MOL      0.074496
     98 H43        -1.3150    5.7570    3.5120 hc        1 MOL      0.074496
     99 H44         0.9030    1.9190    1.7600 hc        1 MOL      0.052372
    100 H45         2.2120    2.7550    0.9460 hc        1 MOL      0.052372
    101 H46         2.5240    1.8880    2.4610 hc        1 MOL      0.052372
    102 N10        -1.8050    1.9540    0.9010 n         1 MOL     -0.718179
    103 C32        -2.0610    0.6890    0.1750 c3        1 MOL      0.467274
    104 C33        -3.5210    0.3070    0.1170 c         1 MOL      0.505980
    105 O16        -3.8580   -0.8500    0.3370 o         1 MOL     -0.572114
    106 C34        -1.1540   -0.3770    0.8220 c3        1 MOL     -0.073562
    107 C35        -0.8970   -1.6030   -0.0570 c         1 MOL      0.769574
    108 O17        -0.1410   -2.5840    0.3150 o         1 MOL     -0.776419
    109 O18        -1.0750   -1.5450   -1.2770 o         1 MOL     -0.776419
    110 H47        -2.2840    2.1190    1.7800 hn        1 MOL      0.302364
    111 H48        -1.7560    0.7640   -0.8660 h1        1 MOL     -0.007034
    112 H49        -1.5180   -0.6520    1.8050 hc        1 MOL      0.003102
    113 H50        -0.1570    0.0430    0.9580 hc        1 MOL      0.003102
    114 N11        -4.4020    1.2600   -0.2420 n         1 MOL     -0.570369
    115 C36        -5.8350    1.0920   -0.5740 c3        1 MOL      0.314867
    116 C37        -6.5550    0.1040    0.3950 c         1 MOL      0.294400
    117 O19        -6.6980    0.4610    1.5170 o         1 MOL     -0.453367
    118 C38        -6.4730    2.4470   -0.6960 c3        1 MOL     -0.291777
    119 C39        -7.7500    2.1970   -1.4720 ca        1 MOL      0.139649
    120 C40        -7.6420    1.9820   -2.8720 ca        1 MOL     -0.219420
    121 C41        -8.9390    1.9050   -0.8040 ca        1 MOL     -0.219420
    122 C42        -8.8330    1.5240   -3.6150 ca        1 MOL     -0.092979
    123 C43        -9.9640    1.3730   -1.4960 ca        1 MOL     -0.092979
    124 C44        -9.9520    1.1070   -2.8580 ca        1 MOL     -0.107054
    125 H51        -4.1150    2.2130   -0.4280 hn        1 MOL      0.288723
    126 H52        -5.8380    0.6460   -1.5660 h1        1 MOL     -0.030868
    127 H53        -5.8870    3.1890   -1.2330 hc        1 MOL      0.118058
    128 H54        -6.6600    2.7870    0.3270 hc        1 MOL      0.118058
    129 H55        -6.6810    2.1790   -3.3220 ha        1 MOL      0.145804
    130 H56        -8.9910    1.9590    0.2720 ha        1 MOL      0.145804
    131 H57        -8.9600    1.5480   -4.6860 ha        1 MOL      0.108513
    132 H58       -10.8620    1.0250   -0.9940 ha        1 MOL      0.108513
    133 H59       -10.7430    0.6930   -3.4760 ha        1 MOL      0.101514
    134 N12        -7.0060   -1.0350   -0.0930 n         1 MOL      0.073978
    135 C45        -7.7750   -2.0260    0.6590 c3        1 MOL      0.209137
    136 C46        -7.0650   -2.4970    1.8870 c         1 MOL      0.107578
    137 O20        -7.7290   -2.5840    2.9500 o         1 MOL     -0.503588
    138 C47        -8.0050   -3.2360   -0.2420 c3        1 MOL      0.017780
    139 C48        -8.1400   -2.5650   -1.5970 c3        1 MOL      0.042625
    140 C49        -7.3200   -1.2480   -1.5170 c3        1 MOL     -0.434105
    141 H60        -8.7010   -1.5450    0.9730 h1        1 MOL      0.022235
    142 H61        -7.1140   -3.8710   -0.2440 hc        1 MOL      0.008290
    143 H62        -8.8800   -3.8590   -0.0340 hc        1 MOL      0.008290
    144 H63        -7.8660   -3.1640   -2.4720 hc        1 MOL      0.004455
    145 H64        -9.1920   -2.3040   -1.6800 hc        1 MOL      0.004455
    146 H65        -6.4610   -1.4450   -2.1520 h1        1 MOL      0.165766
    147 H66        -7.9760   -0.4300   -1.8560 h1        1 MOL      0.165766
    148 N13        -5.7250   -2.7000    1.9090 n         1 MOL      0.143466
    149 C50        -4.9160   -3.1950    3.0110 c3        1 MOL     -0.350197
    150 C51        -4.7230   -2.0820    4.0350 c         1 MOL      0.506079
    151 O21        -4.3540   -2.3490    5.1690 o         1 MOL     -0.546484
    152 C52        -3.5420   -3.7370    2.4910 c3        1 MOL      0.234379
    153 C53        -3.7260   -5.1870    1.8800 c3        1 MOL     -0.142200
    154 C54        -2.6050   -5.4630    0.9620 c         1 MOL      0.712925
    155 O22        -2.4640   -4.7230   -0.0390 o         1 MOL     -0.757522
    156 O23        -1.7720   -6.3720    1.1950 o         1 MOL     -0.757522
    157 H67        -5.3170   -2.5410    0.9920 hn        1 MOL      0.104552
    158 H68        -5.4880   -4.0030    3.4550 h1        1 MOL      0.126753
    159 H69        -2.9640   -3.7360    3.4170 hc        1 MOL      0.002701
    160 H70        -3.1530   -2.9960    1.7840 hc        1 MOL      0.002701
    161 H71        -4.6620   -5.2400    1.3260 hc        1 MOL      0.018652
    162 H72        -3.6320   -5.8810    2.7130 hc        1 MOL      0.018652
    163 N14        -5.1860   -0.8680    3.6840 n         1 MOL     -0.124848
    164 C55        -5.1620    0.3880    4.4670 c3        1 MOL     -0.234157
    165 H73        -5.6770    1.1720    3.9110 h1        1 MOL      0.091219
    166 H74        -5.6640    0.2320    5.4220 h1        1 MOL      0.091219
    167 H75        -4.1290    0.6870    4.6430 h1        1 MOL      0.091219
    168 H76        -5.6060   -0.7690    2.7710 hn        1 MOL      0.148958
    169 Ca1        -0.6430   -4.1100   -1.8280 Ca        1 MOL      1.725321
    170 O24         2.0700   -3.5790   -1.6610 oh        1 MOL     -0.792325
    171 H77         2.6850   -4.2910   -1.8410 ho        1 MOL      0.390921
    172 H78         2.4000   -3.1860   -0.8570 ho        1 MOL      0.390921
    173 O25        -0.1450   -2.8880   -4.2420 oh        1 MOL     -0.792325
    174 H79        -0.7200   -2.5600   -4.9300 ho        1 MOL      0.390921
    175 H80         0.7020   -2.9980   -4.6750 ho        1 MOL      0.390921
    176 O26        -2.8340   -3.7140   -3.3430 oh        1 MOL     -0.792325
    177 H81        -3.3870   -4.3140   -3.8370 ho        1 MOL      0.390921
    178 H82        -3.2820   -2.8660   -3.4080 ho        1 MOL      0.390921
    179 O27         0.6430   -5.7790   -3.4890 oh        1 MOL     -0.792325
    180 H83         1.5510   -6.0710   -3.3980 ho        1 MOL      0.390921
    181 H84         0.4830   -5.7650   -4.4290 ho        1 MOL      0.390921
    182 O28        -1.8870   -6.4600   -2.3170 oh        1 MOL     -0.792325
    183 H85        -1.9250   -6.6270   -1.3730 ho        1 MOL      0.390921
    184 H86        -1.6010   -7.2930   -2.6920 ho        1 MOL      0.390921
    185 O29         0.2830   -6.3580   -0.4530 oh        1 MOL     -0.792325
    186 H87        -0.3530   -6.6270    0.2000 ho        1 MOL      0.390921
    187 H88         1.0590   -6.8930   -0.2670 ho        1 MOL      0.390921
@<TRIPOS>BOND
     1    1    2 1   
     2    1    4 1   
     3    1    5 1   
     4    1    6 1   
     5    2    3 2   
     6    2    7 1   
     7    7    8 1   
     8    7   15 1   
     9    8    9 1   
    10    8   11 1   
    11    8   16 1   
    12    9   10 2   
    13    9   19 1   
    14   11   12 1   
    15   11   17 1   
    16   11   18 1   
    17   12   13 1   
    18   12   14 1   
    19   19   20 1   
    20   19   24 1   
    21   20   21 1   
    22   20   23 1   
    23   20   25 1   
    24   21   22 2   
    25   21   29 1   
    26   23   26 1   
    27   23   27 1   
    28   23   28 1   
    29   29   30 1   
    30   29   37 1   
    31   30   31 1   
    32   30   33 1   
    33   30   38 1   
    34   31   32 2   
    35   31   41 1   
    36   33   34 1   
    37   33   39 1   
    38   33   40 1   
    39   34   35 1   
    40   34   36 1   
    41   41   42 1   
    42   41   45 1   
    43   42   43 1   
    44   42   46 1   
    45   42   47 1   
    46   43   44 2   
    47   43   48 1   
    48   48   49 1   
    49   48   56 1   
    50   49   50 1   
    51   49   52 1   
    52   49   57 1   
    53   50   51 2   
    54   50   62 1   
    55   52   53 1   
    56   52   58 1   
    57   52   59 1   
    58   53   54 1   
    59   53   55 2   
    60   54   60 1   
    61   54   61 1   
    62   62   63 1   
    63   62   66 1   
    64   63   64 1   
    65   63   67 1   
    66   63   68 1   
    67   64   65 2   
    68   64   69 1   
    69   69   70 1   
    70   69   76 1   
    71   70   71 1   
    72   70   73 1   
    73   70   77 1   
    74   71   72 2   
    75   71   83 1   
    76   73   74 1   
    77   73   75 1   
    78   73   78 1   
    79   74   80 1   
    80   74   81 1   
    81   74   82 1   
    82   75   79 1   
    83   83   84 1   
    84   83   91 1   
    85   84   85 1   
    86   84   87 1   
    87   84   92 1   
    88   85   86 2   
    89   85  102 1   
    90   87   88 1   
    91   87   89 1   
    92   87   93 1   
    93   88   90 1   
    94   88   94 1   
    95   88   95 1   
    96   89   96 1   
    97   89   97 1   
    98   89   98 1   
    99   90   99 1   
   100   90  100 1   
   101   90  101 1   
   102  102  103 1   
   103  102  110 1   
   104  103  104 1   
   105  103  106 1   
   106  103  111 1   
   107  104  105 2   
   108  104  114 1   
   109  106  107 1   
   110  106  112 1   
   111  106  113 1   
   112  107  108 1   
   113  107  109 1   
   114  114  115 1   
   115  114  125 1   
   116  115  116 1   
   117  115  118 1   
   118  115  126 1   
   119  116  117 2   
   120  116  134 1   
   121  118  119 1   
   122  118  127 1   
   123  118  128 1   
   124  119  120 ar  
   125  119  121 ar  
   126  120  122 ar  
   127  120  129 1   
   128  121  123 ar  
   129  121  130 1   
   130  122  124 ar  
   131  122  131 1   
   132  123  124 ar  
   133  123  132 1   
   134  124  133 1   
   135  134  135 1   
   136  134  140 1   
   137  135  136 1   
   138  135  138 1   
   139  135  141 1   
   140  136  137 2   
   141  136  148 1   
   142  138  139 1   
   143  138  142 1   
   144  138  143 1   
   145  139  140 1   
   146  139  144 1   
   147  139  145 1   
   148  140  146 1   
   149  140  147 1   
   150  148  149 1   
   151  148  157 1   
   152  149  150 1   
   153  149  152 1   
   154  149  158 1   
   155  150  151 2   
   156  150  163 1   
   157  152  153 1   
   158  152  159 1   
   159  152  160 1   
   160  153  154 1   
   161  153  161 1   
   162  153  162 1   
   163  154  155 1   
   164  154  156 1   
   165  163  164 1   
   166  163  168 1   
   167  164  165 1   
   168  164  166 1   
   169  164  167 1   
   170  170  171 1   
   171  170  172 1   
   172  173  174 1   
   173  173  175 1   
   174  176  177 1   
   175  176  178 1   
   176  179  180 1   
   177  179  181 1   
   178  182  183 1   
   179  182  184 1   
   180  185  186 1   
   181  185  187 1   
@<TRIPOS>SUBSTRUCTURE
     1 MOL         1 TEMP              0 ****  ****    0 ROOT
