@<TRIPOS>MOLECULE
MOL
  192   187     1     0     0
SMALL
resp


@<TRIPOS>ATOM
      1 C1          9.1040    2.0310    1.0730 c3        1 MOL     -0.551264
      2 C2          8.0680    1.2020    0.2490 c         1 MOL      0.654994
      3 O1          6.9640    0.9010    0.7810 o         1 MOL     -0.637133
      4 H1          8.6670    2.9910    1.3450 hc        1 MOL      0.146186
      5 H2          9.3690    1.4840    1.9780 hc        1 MOL      0.146186
      6 H3          9.9990    2.1960    0.4730 hc        1 MOL      0.146186
      7 N1          8.4450    0.7170   -0.9670 n         1 MOL     -0.374751
      8 C3          7.6460   -0.0640   -1.9980 c3        1 MOL     -0.100761
      9 C4          7.3880   -1.5340   -1.6650 c         1 MOL      0.502327
     10 O2          7.8080   -2.4760   -2.4130 o         1 MOL     -0.491043
     11 C5          8.2880    0.1910   -3.4000 c3        1 MOL     -0.055427
     12 C6          9.8020    0.0470   -3.4930 c         1 MOL      0.694131
     13 O3         10.4240   -0.3000   -2.4560 o         1 MOL     -0.662197
     14 O4         10.3140    0.2280   -4.5900 o         1 MOL     -0.662197
     15 H4          9.4180    0.8620   -1.2370 hn        1 MOL      0.221548
     16 H5          6.7050    0.4880   -1.9100 h1        1 MOL      0.079561
     17 H6          8.0810    1.2080   -3.7270 hc        1 MOL      0.038562
     18 H7          7.8180   -0.4050   -4.1810 hc        1 MOL      0.038562
     19 N2          6.8120   -1.7300   -0.4560 n         1 MOL     -0.342784
     20 C7          6.5470   -3.0590    0.1500 c3        1 MOL      0.299167
     21 C8          5.1630   -3.6510   -0.0050 c         1 MOL      0.354308
     22 O5          5.0180   -4.7480   -0.4680 o         1 MOL     -0.518142
     23 C9          6.9220   -3.0500    1.5660 c3        1 MOL     -0.111822
     24 C10         8.4210   -3.2760    1.7840 c3        1 MOL      0.062059
     25 C11         8.7900   -3.3510    3.2890 c3        1 MOL     -0.098634
     26 C12        10.3110   -3.1600    3.4340 c3        1 MOL      0.168931
     27 N3         10.7580   -3.2050    4.8340 n4        1 MOL     -0.362674
     28 H8          6.6370   -0.9000    0.0900 hn        1 MOL      0.205536
     29 H9          7.2020   -3.7410   -0.3840 h1        1 MOL     -0.004954
     30 H10         6.3250   -3.8160    2.0600 hc        1 MOL      0.012776
     31 H11         6.6320   -2.0630    1.9360 hc        1 MOL      0.012776
     32 H12         8.9480   -2.4880    1.2510 hc        1 MOL      0.025336
     33 H13         8.7450   -4.2060    1.3030 hc        1 MOL      0.025336
     34 H14         8.5450   -4.3070    3.7400 hc        1 MOL      0.033238
     35 H15         8.4720   -2.5180    3.9020 hc        1 MOL      0.033238
     36 H16        10.6450   -2.2850    2.8700 hx        1 MOL      0.041566
     37 H17        10.7390   -4.0650    2.9930 hx        1 MOL      0.041566
     38 H18        11.7430   -3.0640    5.0100 hn        1 MOL      0.287492
     39 H19        10.2770   -2.4790    5.3550 hn        1 MOL      0.287492
     40 H20        10.5410   -4.1270    5.1750 hn        1 MOL      0.287492
     41 N4          4.0790   -2.9620    0.2950 n         1 MOL     -0.244137
     42 C13         3.9350   -1.7450    1.0690 c3        1 MOL      0.070162
     43 C14         3.9160   -0.4790    0.1590 c         1 MOL      0.457408
     44 O6          3.9530   -0.5680   -1.0690 o         1 MOL     -0.476837
     45 C15         2.6500   -1.8420    1.8290 c3        1 MOL     -0.282214
     46 C16         1.4490   -2.1600    0.9420 c         1 MOL      0.741771
     47 O7          0.6970   -1.2670    0.4860 o         1 MOL     -0.680120
     48 O8          1.3530   -3.3620    0.6640 o         1 MOL     -0.680120
     49 H21         3.2560   -3.5340    0.3560 hn        1 MOL      0.276729
     50 H22         4.7520   -1.5240    1.7520 h1        1 MOL      0.008639
     51 H23         2.5300   -0.9480    2.4420 hc        1 MOL      0.042008
     52 H24         2.8660   -2.6300    2.5380 hc        1 MOL      0.042008
     53 N5          3.6950    0.7260    0.7620 n         1 MOL     -0.337757
     54 C17         3.8670    1.9990    0.0120 c3        1 MOL      0.077632
     55 C18         2.5310    2.5800   -0.5460 c         1 MOL      0.344332
     56 O9          1.4760    2.0390   -0.2730 o         1 MOL     -0.414145
     57 H25         3.9030    0.7180    1.7420 hn        1 MOL      0.281002
     58 H26         4.4070    1.7510   -0.8950 h1        1 MOL      0.035176
     59 H27         4.3220    2.8090    0.5760 h1        1 MOL      0.035176
     60 N6          2.7030    3.6040   -1.3230 n         1 MOL     -0.455416
     61 C19         1.5260    4.4850   -1.7610 c3        1 MOL      0.315796
     62 C20         1.9400    5.9830   -1.6300 c         1 MOL      0.363366
     63 O10         3.1640    6.2690   -1.6080 o         1 MOL     -0.530532
     64 C21         0.9670    4.1370   -3.1720 c3        1 MOL     -0.205562
     65 C22         0.5980    2.6900   -3.2130 c         1 MOL      0.639149
     66 O11        -0.3660    2.1750   -2.6000 o         1 MOL     -0.650621
     67 O12         1.3840    1.9290   -3.8670 o         1 MOL     -0.650621
     68 H28         3.6090    3.8280   -1.7040 hn        1 MOL      0.324484
     69 H29         0.7410    4.3710   -1.0010 h1        1 MOL     -0.012013
     70 H30         1.7260    4.3470   -3.9300 hc        1 MOL      0.057346
     71 H31         0.1020    4.7420   -3.4290 hc        1 MOL      0.057346
     72 N7          1.0350    6.9280   -1.5150 n         1 MOL     -0.349698
     73 C23        -0.4330    6.8650   -1.4110 c3        1 MOL     -0.162427
     74 C24        -0.9950    6.3580   -0.0900 c         1 MOL      0.644721
     75 O13        -0.5040    6.5640    1.0100 o         1 MOL     -0.535375
     76 H32         1.4240    7.8510   -1.3830 hn        1 MOL      0.305703
     77 H33        -0.8050    6.3450   -2.2940 h1        1 MOL      0.094134
     78 H34        -0.8330    7.8800   -1.4550 h1        1 MOL      0.094134
     79 N8         -2.0240    5.6010   -0.2530 n         1 MOL     -0.560143
     80 C25        -2.6630    4.7470    0.7880 c3        1 MOL      0.123544
     81 C26        -1.8730    3.5000    1.1870 c         1 MOL      0.673591
     82 O14        -1.2770    2.8320    0.3530 o         1 MOL     -0.610731
     83 C27        -4.0910    4.3720    0.2950 c3        1 MOL      0.107154
     84 C28        -4.8760    3.5530    1.3220 c3        1 MOL     -0.328131
     85 O15        -4.2120    3.7850   -0.9490 oh        1 MOL     -0.615613
     86 H35        -2.1800    5.3080   -1.2150 hn        1 MOL      0.303360
     87 H36        -2.7950    5.3310    1.7070 h1        1 MOL      0.043396
     88 H37        -4.5760    5.3390    0.1790 h1        1 MOL      0.060303
     89 H38        -4.9490    4.1080   -1.4810 ho        1 MOL      0.454945
     90 H39        -4.8100    3.9450    2.3370 hc        1 MOL      0.108446
     91 H40        -5.9090    3.5070    0.9660 hc        1 MOL      0.108446
     92 H41        -4.4110    2.5720    1.4380 hc        1 MOL      0.108446
     93 N9         -1.8850    3.1960    2.4810 n         1 MOL     -0.411754
     94 C29        -1.1130    2.0670    3.1250 c3        1 MOL     -0.177338
     95 C30        -1.6060    0.6240    2.7180 c         1 MOL      0.578228
     96 O16        -1.7140    0.3500    1.5210 o         1 MOL     -0.500987
     97 C31         0.3600    2.2380    3.0440 c3        1 MOL      0.328218
     98 C32         0.9210    3.6730    3.3620 c3        1 MOL     -0.161021
     99 C33         1.0710    1.2730    4.0570 c3        1 MOL     -0.585722
    100 C34         2.0240    3.9910    2.3610 c3        1 MOL      0.171430
    101 H42        -2.4810    3.7340    3.0980 hn        1 MOL      0.287044
    102 H43        -1.3300    2.2250    4.1890 h1        1 MOL      0.049013
    103 H44         0.7450    1.8520    2.1020 hc        1 MOL     -0.132034
    104 H45         1.4150    3.7360    4.3210 hc        1 MOL      0.026316
    105 H46         0.1360    4.4190    3.2230 hc        1 MOL      0.026316
    106 H47         0.7280    1.6120    5.0370 hc        1 MOL      0.143699
    107 H48         0.8210    0.2260    3.8530 hc        1 MOL      0.143699
    108 H49         2.1530    1.4220    4.0960 hc        1 MOL      0.143699
    109 H50         2.4870    4.9480    2.5870 hc        1 MOL     -0.020137
    110 H51         2.7780    3.2090    2.4730 hc        1 MOL     -0.020137
    111 H52         1.6560    4.1440    1.3470 hc        1 MOL     -0.020137
    112 N10        -1.8320   -0.3000    3.6750 n         1 MOL     -0.310433
    113 C35        -2.3500   -1.6090    3.3390 c3        1 MOL     -0.217441
    114 C36        -3.7810   -1.7550    2.7980 c         1 MOL      0.561302
    115 O17        -4.1000   -2.7760    2.1610 o         1 MOL     -0.546410
    116 C37        -2.3190   -2.5190    4.6470 c3        1 MOL      0.463380
    117 C38        -3.3230   -2.1810    5.6980 c3        1 MOL     -0.200118
    118 O18        -1.0380   -2.4880    5.2060 oh        1 MOL     -0.645956
    119 H53        -1.8140   -0.0470    4.6520 hn        1 MOL      0.285391
    120 H54        -1.6990   -2.0870    2.6140 h1        1 MOL      0.109746
    121 H55        -2.3960   -3.5810    4.3930 h1        1 MOL     -0.014416
    122 H56        -0.5130   -2.9100    4.5170 ho        1 MOL      0.409590
    123 H57        -3.0850   -2.6290    6.6560 hc        1 MOL      0.049239
    124 H58        -3.4490   -1.0980    5.7040 hc        1 MOL      0.049239
    125 H59        -4.2830   -2.6680    5.4920 hc        1 MOL      0.049239
    126 N11        -4.6170   -0.7120    2.9790 n         1 MOL     -0.343129
    127 C39        -6.0110   -0.6670    2.3940 c3        1 MOL     -0.277393
    128 C40        -6.0650   -1.0550    0.9000 c         1 MOL      0.696395
    129 O19        -5.4350   -0.3770    0.0700 o         1 MOL     -0.504356
    130 C41        -6.6360    0.7030    2.5040 c3        1 MOL      0.477949
    131 C42        -8.0970    0.7420    2.2970 c3        1 MOL     -0.326868
    132 O20        -6.3960    1.3070    3.7900 oh        1 MOL     -0.602125
    133 H60        -4.2260    0.1500    3.3360 hn        1 MOL      0.208936
    134 H61        -6.6820   -1.3220    2.9650 h1        1 MOL      0.087128
    135 H62        -6.1610    1.4130    1.8160 h1        1 MOL     -0.039473
    136 H63        -6.6240    0.6020    4.4030 ho        1 MOL      0.366566
    137 H64        -8.6220    1.6190    2.6910 hc        1 MOL      0.075919
    138 H65        -8.2630    0.6860    1.2240 hc        1 MOL      0.075919
    139 H66        -8.5260   -0.0940    2.8470 hc        1 MOL      0.075919
    140 N12        -6.8650   -1.9930    0.5560 n         1 MOL     -0.409177
    141 C43        -7.1470   -2.4500   -0.8390 c3        1 MOL     -0.023717
    142 C44        -5.9350   -2.4960   -1.7780 c         1 MOL      0.567440
    143 O21        -5.8170   -1.8390   -2.8370 o         1 MOL     -0.495667
    144 C45        -8.3370   -1.6930   -1.4780 c3        1 MOL     -0.157803
    145 C46        -9.6210   -1.8140   -0.7230 c3        1 MOL      0.202333
    146 C47       -10.7100   -0.9940   -1.4450 c3        1 MOL     -0.176020
    147 C48       -12.0940   -1.0480   -0.6610 c3        1 MOL      0.123502
    148 N13       -13.1180   -0.4390   -1.5180 n4        1 MOL     -0.119309
    149 H67        -7.3830   -2.4790    1.2720 hn        1 MOL      0.259197
    150 H68        -7.4790   -3.4840   -0.7780 h1        1 MOL      0.074791
    151 H69        -8.4890   -2.2090   -2.4320 hc        1 MOL      0.073586
    152 H70        -8.1120   -0.6530   -1.7140 hc        1 MOL      0.073586
    153 H71        -9.4790   -1.4210    0.2750 hc        1 MOL     -0.036440
    154 H72        -9.8950   -2.8640   -0.7160 hc        1 MOL     -0.036440
    155 H73       -10.9140   -1.4110   -2.4350 hc        1 MOL      0.068568
    156 H74       -10.2850    0.0140   -1.5120 hc        1 MOL      0.068568
    157 H75       -12.1310   -0.4800    0.2770 hx        1 MOL      0.032608
    158 H76       -12.3470   -2.0650   -0.3620 hx        1 MOL      0.032608
    159 H77       -13.5190   -1.0550   -2.2050 hn        1 MOL      0.186507
    160 H78       -13.8780   -0.0690   -0.9590 hn        1 MOL      0.186507
    161 H79       -12.8300    0.4000   -2.0010 hn        1 MOL      0.186507
    162 N14        -4.8830   -3.2300   -1.3190 n         1 MOL     -0.661864
    163 C49        -3.5420   -3.3650   -1.9430 c3        1 MOL      0.659030
    164 C50        -2.3860   -3.1370   -1.0530 c         1 MOL      0.116851
    165 O22        -2.0180   -1.9930   -0.9020 o         1 MOL     -0.464935
    166 C51        -3.4820   -4.5760   -2.9260 c3        1 MOL     -0.434905
    167 C52        -4.0570   -4.2070   -4.2700 c3        1 MOL     -0.021765
    168 C53        -3.0190   -3.6350   -5.2990 c         1 MOL      0.671979
    169 O23        -2.5360   -2.4850   -5.1320 o         1 MOL     -0.596521
    170 O24        -2.7320   -4.2740   -6.3110 o         1 MOL     -0.596521
    171 H80        -5.0660   -3.4760   -0.3530 hn        1 MOL      0.303695
    172 H81        -3.4290   -2.5420   -2.6400 h1        1 MOL      0.047932
    173 H82        -4.0340   -5.4450   -2.5640 hc        1 MOL      0.115052
    174 H83        -2.4620   -4.9210   -3.1080 hc        1 MOL      0.115052
    175 H84        -4.9120   -3.5300   -4.1890 hc        1 MOL     -0.008203
    176 H85        -4.4760   -5.1410   -4.6400 hc        1 MOL     -0.008203
    177 N15        -1.7090   -4.0970   -0.4230 n         1 MOL     -0.205870
    178 C54        -1.9980   -5.4980   -0.2620 c3        1 MOL      0.075567
    179 H86        -1.9190   -5.7650    0.7920 h1        1 MOL      0.007239
    180 H87        -3.0080   -5.7040   -0.6140 h1        1 MOL      0.007239
    181 H88        -1.2850   -6.0860   -0.8390 h1        1 MOL      0.007239
    182 H89        -0.8960   -3.6950    0.0100 hn        1 MOL      0.262723
    183 Ca1        -0.7230    0.3870   -0.8280 Ca        1 MOL      1.720070
    184 O25        -3.3570    1.1420   -1.3200 oh        1 MOL     -0.901624
    185 H90        -4.2070    0.7900   -1.0550 ho        1 MOL      0.423286
    186 H91        -3.4880    2.0940   -1.3440 ho        1 MOL      0.423286
    187 O26        -1.3230   -0.7610   -3.1960 oh        1 MOL     -0.901624
    188 H92        -1.9240   -1.3440   -3.6450 ho        1 MOL      0.423286
    189 H93        -0.6340   -0.5870   -3.8400 ho        1 MOL      0.423286
    190 O27         1.5720   -0.1010   -2.3910 oh        1 MOL     -0.901624
    191 H94         2.4580    0.0120   -2.0480 ho        1 MOL      0.423286
    192 H95         1.4150    0.6910   -2.9160 ho        1 MOL      0.423286
@<TRIPOS>BOND
     1    1    2 1   
     2    1    4 1   
     3    1    5 1   
     4    1    6 1   
     5    2    3 2   
     6    2    7 1   
     7    7    8 1   
     8    7   15 1   
     9    8    9 1   
    10    8   11 1   
    11    8   16 1   
    12    9   10 2   
    13    9   19 1   
    14   11   12 1   
    15   11   17 1   
    16   11   18 1   
    17   12   13 1   
    18   12   14 1   
    19   19   20 1   
    20   19   28 1   
    21   20   21 1   
    22   20   23 1   
    23   20   29 1   
    24   21   22 2   
    25   21   41 1   
    26   23   24 1   
    27   23   30 1   
    28   23   31 1   
    29   24   25 1   
    30   24   32 1   
    31   24   33 1   
    32   25   26 1   
    33   25   34 1   
    34   25   35 1   
    35   26   27 1   
    36   26   36 1   
    37   26   37 1   
    38   27   38 1   
    39   27   39 1   
    40   27   40 1   
    41   41   42 1   
    42   41   49 1   
    43   42   43 1   
    44   42   45 1   
    45   42   50 1   
    46   43   44 2   
    47   43   53 1   
    48   45   46 1   
    49   45   51 1   
    50   45   52 1   
    51   46   47 1   
    52   46   48 1   
    53   53   54 1   
    54   53   57 1   
    55   54   55 1   
    56   54   58 1   
    57   54   59 1   
    58   55   56 2   
    59   55   60 1   
    60   60   61 1   
    61   60   68 1   
    62   61   62 1   
    63   61   64 1   
    64   61   69 1   
    65   62   63 2   
    66   62   72 1   
    67   64   65 1   
    68   64   70 1   
    69   64   71 1   
    70   65   66 1   
    71   65   67 1   
    72   72   73 1   
    73   72   76 1   
    74   73   74 1   
    75   73   77 1   
    76   73   78 1   
    77   74   75 2   
    78   74   79 1   
    79   79   80 1   
    80   79   86 1   
    81   80   81 1   
    82   80   83 1   
    83   80   87 1   
    84   81   82 2   
    85   81   93 1   
    86   83   84 1   
    87   83   85 1   
    88   83   88 1   
    89   84   90 1   
    90   84   91 1   
    91   84   92 1   
    92   85   89 1   
    93   93   94 1   
    94   93  101 1   
    95   94   95 1   
    96   94   97 1   
    97   94  102 1   
    98   95   96 2   
    99   95  112 1   
   100   97   98 1   
   101   97   99 1   
   102   97  103 1   
   103   98  100 1   
   104   98  104 1   
   105   98  105 1   
   106   99  106 1   
   107   99  107 1   
   108   99  108 1   
   109  100  109 1   
   110  100  110 1   
   111  100  111 1   
   112  112  113 1   
   113  112  119 1   
   114  113  114 1   
   115  113  116 1   
   116  113  120 1   
   117  114  115 2   
   118  114  126 1   
   119  116  117 1   
   120  116  118 1   
   121  116  121 1   
   122  117  123 1   
   123  117  124 1   
   124  117  125 1   
   125  118  122 1   
   126  126  127 1   
   127  126  133 1   
   128  127  128 1   
   129  127  130 1   
   130  127  134 1   
   131  128  129 2   
   132  128  140 1   
   133  130  131 1   
   134  130  132 1   
   135  130  135 1   
   136  131  137 1   
   137  131  138 1   
   138  131  139 1   
   139  132  136 1   
   140  140  141 1   
   141  140  149 1   
   142  141  142 1   
   143  141  144 1   
   144  141  150 1   
   145  142  143 2   
   146  142  162 1   
   147  144  145 1   
   148  144  151 1   
   149  144  152 1   
   150  145  146 1   
   151  145  153 1   
   152  145  154 1   
   153  146  147 1   
   154  146  155 1   
   155  146  156 1   
   156  147  148 1   
   157  147  157 1   
   158  147  158 1   
   159  148  159 1   
   160  148  160 1   
   161  148  161 1   
   162  162  163 1   
   163  162  171 1   
   164  163  164 1   
   165  163  166 1   
   166  163  172 1   
   167  164  165 2   
   168  164  177 1   
   169  166  167 1   
   170  166  173 1   
   171  166  174 1   
   172  167  168 1   
   173  167  175 1   
   174  167  176 1   
   175  168  169 1   
   176  168  170 1   
   177  177  178 1   
   178  177  182 1   
   179  178  179 1   
   180  178  180 1   
   181  178  181 1   
   182  184  185 1   
   183  184  186 1   
   184  187  188 1   
   185  187  189 1   
   186  190  191 1   
   187  190  192 1   
@<TRIPOS>SUBSTRUCTURE
     1 MOL         1 TEMP              0 ****  ****    0 ROOT
