@<TRIPOS>MOLECULE
MOL
  192   187     1     0     0
SMALL
resp


@<TRIPOS>ATOM
      1 C1         -9.7930    0.6370   -1.7840 c3        1 MOL     -0.397160
      2 C2         -8.4440    0.3430   -1.0700 c         1 MOL      0.874432
      3 O1         -7.4010    0.4430   -1.6610 o         1 MOL     -0.694494
      4 H1        -10.3980    1.2950   -1.1600 hc        1 MOL      0.086072
      5 H2         -9.6000    1.1220   -2.7410 hc        1 MOL      0.086072
      6 H3        -10.3280   -0.2980   -1.9510 hc        1 MOL      0.086072
      7 N1         -8.5930    0.1100    0.1900 n         1 MOL     -0.750962
      8 C3         -7.4250   -0.1290    1.1270 c3        1 MOL      0.199848
      9 C4         -6.8900   -1.5910    1.1680 c         1 MOL      0.498454
     10 O2         -6.7780   -2.2450    2.2140 o         1 MOL     -0.449321
     11 C5         -7.7290    0.3310    2.6200 c3        1 MOL     -0.263821
     12 C6         -8.8310   -0.4420    3.4010 c         1 MOL      0.735007
     13 O3         -8.9280   -0.2590    4.6080 o         1 MOL     -0.647830
     14 O4         -9.5140   -1.2250    2.8180 o         1 MOL     -0.647830
     15 H4         -9.5110    0.2680    0.5810 hn        1 MOL      0.354746
     16 H5         -6.6160    0.5440    0.8230 h1        1 MOL      0.106988
     17 H6         -7.9300    1.4020    2.6400 hc        1 MOL      0.055850
     18 H7         -6.7980    0.1510    3.1690 hc        1 MOL      0.055850
     19 N2         -6.6340   -2.1430    0.0300 n         1 MOL     -0.473954
     20 C7         -6.2610   -3.6180   -0.1130 c3        1 MOL      0.112545
     21 C8         -4.7560   -3.9380    0.2040 c         1 MOL      0.503764
     22 O5         -4.5120   -4.9750    0.6870 o         1 MOL     -0.533823
     23 C9         -6.5540   -3.9710   -1.5550 c3        1 MOL     -0.153867
     24 C10        -8.0780   -3.9310   -1.8990 c3        1 MOL      0.084869
     25 C11        -8.3180   -4.4890   -3.3000 c3        1 MOL     -0.037125
     26 C12        -9.8550   -4.4880   -3.4280 c3        1 MOL     -0.042738
     27 N3        -10.2890   -5.4060   -4.5010 n4        1 MOL     -0.045191
     28 H8         -6.5980   -1.5690   -0.8040 hn        1 MOL      0.274566
     29 H9         -6.8270   -4.2530    0.5560 h1        1 MOL      0.102154
     30 H10        -6.1870   -4.9890   -1.6670 hc        1 MOL      0.040786
     31 H11        -6.0770   -3.2890   -2.2640 hc        1 MOL      0.040786
     32 H12        -8.3700   -2.8870   -1.9710 hc        1 MOL      0.012471
     33 H13        -8.6790   -4.4100   -1.1220 hc        1 MOL      0.012471
     34 H14        -8.0330   -5.5380   -3.3060 hc        1 MOL      0.037182
     35 H15        -7.7060   -3.9330   -4.0140 hc        1 MOL      0.037182
     36 H16       -10.1640   -3.4520   -3.6130 hx        1 MOL      0.080191
     37 H17       -10.3380   -4.8520   -2.5190 hx        1 MOL      0.080191
     38 H18       -10.9170   -6.1300   -4.2030 hn        1 MOL      0.187238
     39 H19       -10.7470   -4.8850   -5.2390 hn        1 MOL      0.187238
     40 H20        -9.4680   -5.7660   -4.9780 hn        1 MOL      0.187238
     41 N4         -3.7500   -3.0520    0.1010 n         1 MOL     -0.381571
     42 C13        -3.6390   -1.8170   -0.7980 c3        1 MOL     -0.015239
     43 C14        -3.6180   -0.4870   -0.0100 c         1 MOL      0.134916
     44 O6         -3.2250   -0.5040    1.1520 o         1 MOL     -0.355999
     45 C15        -2.4660   -1.9290   -1.6170 c3        1 MOL     -0.111241
     46 C16        -1.1320   -2.1210   -0.8130 c         1 MOL      0.814354
     47 O7         -0.6280   -1.2030   -0.1160 o         1 MOL     -0.748249
     48 O8         -0.5170   -3.1890   -0.9380 o         1 MOL     -0.748249
     49 H21        -2.8570   -3.4060    0.4140 hn        1 MOL      0.327926
     50 H22        -4.4890   -1.8350   -1.4740 h1        1 MOL      0.081556
     51 H23        -2.3560   -1.0250   -2.2170 hc        1 MOL      0.019900
     52 H24        -2.5100   -2.8420   -2.2050 hc        1 MOL      0.019900
     53 N5         -3.9700    0.6890   -0.6640 n         1 MOL     -0.175426
     54 C17        -4.0210    1.9930   -0.0610 c3        1 MOL     -0.074744
     55 C18        -2.7950    2.6200    0.5300 c         1 MOL      0.783255
     56 O9         -1.7170    2.0330    0.6200 o         1 MOL     -0.710614
     57 H25        -4.2780    0.6260   -1.6200 hn        1 MOL      0.254512
     58 H26        -4.8430    1.8830    0.6410 h1        1 MOL      0.033077
     59 H27        -4.3910    2.6510   -0.8450 h1        1 MOL      0.033077
     60 N6         -2.9900    3.8970    0.8570 n         1 MOL     -0.545553
     61 C19        -2.0570    4.8400    1.4860 c3        1 MOL      0.422175
     62 C20        -2.4460    6.3100    1.1640 c         1 MOL      0.387782
     63 O10        -3.6050    6.5040    0.7980 o         1 MOL     -0.499247
     64 C21        -2.0050    4.6300    3.0640 c3        1 MOL     -0.293586
     65 C22        -1.4060    3.2250    3.3900 c         1 MOL      0.640896
     66 O11        -0.3260    2.8820    2.9060 o         1 MOL     -0.646505
     67 O12        -2.0170    2.4630    4.1360 o         1 MOL     -0.646505
     68 H28        -3.8590    4.2620    0.4940 hn        1 MOL      0.252428
     69 H29        -1.0520    4.5850    1.1380 h1        1 MOL     -0.041701
     70 H30        -3.0560    4.6150    3.3510 hc        1 MOL      0.080044
     71 H31        -1.5380    5.3870    3.6990 hc        1 MOL      0.080044
     72 N7         -1.5410    7.3180    1.3300 n         1 MOL     -0.493272
     73 C23        -0.0300    7.0990    1.6660 c3        1 MOL     -0.019012
     74 C24         0.6950    6.4760    0.4800 c         1 MOL      0.619676
     75 O13         0.2740    6.7500   -0.6830 o         1 MOL     -0.538654
     76 H32        -1.8490    8.2560    1.1140 hn        1 MOL      0.343235
     77 H33         0.0660    6.5490    2.6010 h1        1 MOL      0.066395
     78 H34         0.4300    8.0740    1.7870 h1        1 MOL      0.066395
     79 N8          1.6870    5.6420    0.7280 n         1 MOL     -0.581477
     80 C25         2.5080    4.9350   -0.2070 c3        1 MOL      0.068181
     81 C26         1.6870    3.7670   -0.6510 c         1 MOL      0.373815
     82 O14         1.0340    3.0780    0.1720 o         1 MOL     -0.463811
     83 C27         3.8230    4.3940    0.4080 c3        1 MOL      0.361813
     84 C28         4.8630    5.4370    0.8710 c3        1 MOL     -0.288056
     85 O15         4.4340    3.5980   -0.5600 oh        1 MOL     -0.603121
     86 H35         1.8500    5.3060    1.6640 hn        1 MOL      0.294844
     87 H36         2.8170    5.6090   -1.0070 h1        1 MOL      0.099511
     88 H37         3.6200    3.7840    1.2820 h1        1 MOL      0.010833
     89 H38         4.9940    3.0750    0.0180 ho        1 MOL      0.382730
     90 H39         5.1010    6.2180    0.1430 hc        1 MOL      0.071400
     91 H40         4.4710    5.9260    1.7680 hc        1 MOL      0.071400
     92 H41         5.8170    5.0500    1.2300 hc        1 MOL      0.071400
     93 N9          1.6500    3.5240   -2.0080 n         1 MOL     -0.311471
     94 C29         1.1340    2.4380   -2.8080 c3        1 MOL     -0.092617
     95 C30         1.6100    1.0280   -2.3580 c         1 MOL      0.494988
     96 O16         1.7850    0.7410   -1.1630 o         1 MOL     -0.478215
     97 C31        -0.4160    2.6240   -2.8900 c3        1 MOL      0.103655
     98 C32        -0.9490    3.9590   -3.4240 c3        1 MOL      0.279481
     99 C33        -0.9720    1.4770   -3.7950 c3        1 MOL     -0.393346
    100 C34        -2.1540    4.4800   -2.7250 c3        1 MOL     -0.365449
    101 H42         2.2190    4.1440   -2.5760 hn        1 MOL      0.273923
    102 H43         1.5200    2.6360   -3.8020 h1        1 MOL      0.081969
    103 H44        -0.7980    2.3970   -1.8920 hc        1 MOL      0.013938
    104 H45        -1.1660    3.8870   -4.4910 hc        1 MOL     -0.070863
    105 H46        -0.1040    4.6500   -3.3860 hc        1 MOL     -0.070863
    106 H47        -0.4660    1.5710   -4.7490 hc        1 MOL      0.095803
    107 H48        -0.6750    0.4850   -3.4370 hc        1 MOL      0.095803
    108 H49        -2.0610    1.5510   -3.7870 hc        1 MOL      0.095803
    109 H50        -2.7860    3.6300   -2.4510 hc        1 MOL      0.098384
    110 H51        -1.8210    4.9340   -1.7940 hc        1 MOL      0.098384
    111 H52        -2.5630    5.3350   -3.2570 hc        1 MOL      0.098384
    112 N10         2.0530    0.1770   -3.3240 n         1 MOL     -0.427098
    113 C35         2.5300   -1.2550   -3.0790 c3        1 MOL     -0.102158
    114 C36         4.0490   -1.2620   -3.1140 c         1 MOL      0.607716
    115 O17         4.6190   -2.2800   -3.5050 o         1 MOL     -0.602226
    116 C37         1.8260   -2.2100   -4.0420 c3        1 MOL      0.631352
    117 C38         1.9110   -1.9140   -5.5020 c3        1 MOL     -0.330495
    118 O18         0.4630   -2.2220   -3.7040 oh        1 MOL     -0.654736
    119 H53         2.0640    0.4960   -4.2770 hn        1 MOL      0.255439
    120 H54         2.2570   -1.5630   -2.0720 h1        1 MOL      0.079869
    121 H55         2.2340   -3.2160   -3.9300 h1        1 MOL     -0.056639
    122 H56         0.3620   -2.8730   -2.9910 ho        1 MOL      0.375342
    123 H57         1.3270   -2.6720   -6.0250 hc        1 MOL      0.068329
    124 H58         1.4660   -0.9650   -5.8050 hc        1 MOL      0.068329
    125 H59         2.9780   -1.8760   -5.7270 hc        1 MOL      0.068329
    126 N11         4.7350   -0.1870   -2.7810 n         1 MOL     -0.440068
    127 C39         6.1930   -0.0520   -2.9240 c3        1 MOL      0.114265
    128 C40         6.8580   -0.6800   -1.6700 c         1 MOL      0.513635
    129 O19         7.4110   -0.0230   -0.8180 o         1 MOL     -0.523415
    130 C41         6.6510    1.4180   -3.0240 c3        1 MOL      0.378798
    131 C42         8.0270    1.6060   -3.5710 c3        1 MOL     -0.383055
    132 O20         5.7990    2.1670   -3.9050 oh        1 MOL     -0.700035
    133 H60         4.1790    0.5840   -2.4410 hn        1 MOL      0.328262
    134 H61         6.5360   -0.6240   -3.7760 h1        1 MOL      0.056777
    135 H62         6.5310    1.8490   -2.0260 h1        1 MOL      0.008234
    136 H63         6.3910    2.6950   -4.4440 ho        1 MOL      0.424279
    137 H64         8.8160    1.3190   -2.8750 hc        1 MOL      0.093285
    138 H65         8.0540    1.1620   -4.5600 hc        1 MOL      0.093285
    139 H66         8.1720    2.6730   -3.7390 hc        1 MOL      0.093285
    140 N12         6.6430   -1.9540   -1.5360 n         1 MOL     -0.663196
    141 C43         6.4460   -2.6690   -0.2200 c3        1 MOL      0.340166
    142 C44         5.2250   -2.2670    0.6290 c         1 MOL      0.535689
    143 O21         4.6680   -1.1940    0.3090 o         1 MOL     -0.479495
    144 C45         7.7280   -2.5590    0.5970 c3        1 MOL     -0.430092
    145 C46         9.1280   -2.8370   -0.0320 c3        1 MOL      0.024704
    146 C47        10.2740   -2.7180    0.9230 c3        1 MOL     -0.003501
    147 C48        11.5510   -3.2100    0.2090 c3        1 MOL     -0.009149
    148 N13        12.6970   -3.1140    1.1100 n4        1 MOL     -0.191771
    149 H67         6.1450   -2.3810   -2.3080 hn        1 MOL      0.331599
    150 H68         6.2280   -3.7200   -0.3950 h1        1 MOL      0.024458
    151 H69         7.6460   -3.1840    1.4850 hc        1 MOL      0.106996
    152 H70         7.7910   -1.5560    1.0150 hc        1 MOL      0.106996
    153 H71         9.2160   -2.1070   -0.8350 hc        1 MOL      0.048071
    154 H72         9.0960   -3.8590   -0.4230 hc        1 MOL      0.048071
    155 H73        10.0300   -3.2600    1.8330 hc        1 MOL      0.055540
    156 H74        10.3980   -1.6870    1.2410 hc        1 MOL      0.055540
    157 H75        11.7310   -2.5410   -0.6300 hx        1 MOL      0.072329
    158 H76        11.4310   -4.1900   -0.2630 hx        1 MOL      0.072329
    159 H77        13.4650   -2.8010    0.5410 hn        1 MOL      0.229832
    160 H78        12.5040   -2.5220    1.9020 hn        1 MOL      0.229832
    161 H79        12.9800   -4.0130    1.4750 hn        1 MOL      0.229832
    162 N14         4.8310   -3.0340    1.6300 n         1 MOL     -0.731029
    163 C49         3.6800   -2.6950    2.4240 c3        1 MOL      0.459665
    164 C50         2.3720   -2.5820    1.6710 c         1 MOL      0.208150
    165 O22         1.7270   -1.5330    1.8170 o         1 MOL     -0.549923
    166 C51         3.4080   -3.7170    3.5370 c3        1 MOL      0.096313
    167 C52         4.2940   -3.4540    4.7770 c3        1 MOL     -0.109611
    168 C53         3.9480   -4.4670    5.8560 c         1 MOL      0.634415
    169 O23         3.4250   -4.0510    6.9450 o         1 MOL     -0.625451
    170 O24         4.0750   -5.6800    5.5830 o         1 MOL     -0.625451
    171 H80         5.4110   -3.7590    2.0100 hn        1 MOL      0.378112
    172 H81         3.8380   -1.7320    2.9110 h1        1 MOL      0.017395
    173 H82         3.6990   -4.7340    3.2610 hc        1 MOL     -0.001204
    174 H83         2.3810   -3.6330    3.8980 hc        1 MOL     -0.001204
    175 H84         4.1630   -2.4460    5.1590 hc        1 MOL     -0.036007
    176 H85         5.3510   -3.5480    4.5000 hc        1 MOL     -0.036007
    177 N15         1.9190   -3.5140    0.7700 n         1 MOL     -0.253035
    178 C54         2.3870   -4.7960    0.3410 c3        1 MOL      0.022510
    179 H86         3.4780   -4.8020    0.3360 h1        1 MOL      0.014835
    180 H87         2.0240   -5.5630    1.0230 h1        1 MOL      0.014835
    181 H88         2.0200   -4.9990   -0.6650 h1        1 MOL      0.014835
    182 H89         1.0620   -3.2460    0.3110 hn        1 MOL      0.345984
    183 Ca1         0.4060    0.8210    1.3530 Ca        1 MOL      1.830067
    184 O25        -1.1640    0.1550    3.3930 oh        1 MOL     -0.896179
    185 H90        -1.4600   -0.3460    4.1600 ho        1 MOL      0.421867
    186 H91        -1.5530    1.0210    3.5070 ho        1 MOL      0.421867
    187 O26         3.0070    1.2970    1.5890 oh        1 MOL     -0.896179
    188 H92         3.7360    0.7810    1.2720 ho        1 MOL      0.421867
    189 H93         3.3080    1.6680    2.4220 ho        1 MOL      0.421867
    190 O27         1.3890    1.1620    3.9800 oh        1 MOL     -0.896179
    191 H94         1.5490    0.6080    4.7520 ho        1 MOL      0.421867
    192 H95         0.7400    1.7990    4.2680 ho        1 MOL      0.421867
@<TRIPOS>BOND
     1    1    2 1   
     2    1    4 1   
     3    1    5 1   
     4    1    6 1   
     5    2    3 2   
     6    2    7 1   
     7    7    8 1   
     8    7   15 1   
     9    8    9 1   
    10    8   11 1   
    11    8   16 1   
    12    9   10 2   
    13    9   19 1   
    14   11   12 1   
    15   11   17 1   
    16   11   18 1   
    17   12   13 1   
    18   12   14 1   
    19   19   20 1   
    20   19   28 1   
    21   20   21 1   
    22   20   23 1   
    23   20   29 1   
    24   21   22 2   
    25   21   41 1   
    26   23   24 1   
    27   23   30 1   
    28   23   31 1   
    29   24   25 1   
    30   24   32 1   
    31   24   33 1   
    32   25   26 1   
    33   25   34 1   
    34   25   35 1   
    35   26   27 1   
    36   26   36 1   
    37   26   37 1   
    38   27   38 1   
    39   27   39 1   
    40   27   40 1   
    41   41   42 1   
    42   41   49 1   
    43   42   43 1   
    44   42   45 1   
    45   42   50 1   
    46   43   44 2   
    47   43   53 1   
    48   45   46 1   
    49   45   51 1   
    50   45   52 1   
    51   46   47 1   
    52   46   48 1   
    53   53   54 1   
    54   53   57 1   
    55   54   55 1   
    56   54   58 1   
    57   54   59 1   
    58   55   56 2   
    59   55   60 1   
    60   60   61 1   
    61   60   68 1   
    62   61   62 1   
    63   61   64 1   
    64   61   69 1   
    65   62   63 2   
    66   62   72 1   
    67   64   65 1   
    68   64   70 1   
    69   64   71 1   
    70   65   66 1   
    71   65   67 1   
    72   72   73 1   
    73   72   76 1   
    74   73   74 1   
    75   73   77 1   
    76   73   78 1   
    77   74   75 2   
    78   74   79 1   
    79   79   80 1   
    80   79   86 1   
    81   80   81 1   
    82   80   83 1   
    83   80   87 1   
    84   81   82 2   
    85   81   93 1   
    86   83   84 1   
    87   83   85 1   
    88   83   88 1   
    89   84   90 1   
    90   84   91 1   
    91   84   92 1   
    92   85   89 1   
    93   93   94 1   
    94   93  101 1   
    95   94   95 1   
    96   94   97 1   
    97   94  102 1   
    98   95   96 2   
    99   95  112 1   
   100   97   98 1   
   101   97   99 1   
   102   97  103 1   
   103   98  100 1   
   104   98  104 1   
   105   98  105 1   
   106   99  106 1   
   107   99  107 1   
   108   99  108 1   
   109  100  109 1   
   110  100  110 1   
   111  100  111 1   
   112  112  113 1   
   113  112  119 1   
   114  113  114 1   
   115  113  116 1   
   116  113  120 1   
   117  114  115 2   
   118  114  126 1   
   119  116  117 1   
   120  116  118 1   
   121  116  121 1   
   122  117  123 1   
   123  117  124 1   
   124  117  125 1   
   125  118  122 1   
   126  126  127 1   
   127  126  133 1   
   128  127  128 1   
   129  127  130 1   
   130  127  134 1   
   131  128  129 2   
   132  128  140 1   
   133  130  131 1   
   134  130  132 1   
   135  130  135 1   
   136  131  137 1   
   137  131  138 1   
   138  131  139 1   
   139  132  136 1   
   140  140  141 1   
   141  140  149 1   
   142  141  142 1   
   143  141  144 1   
   144  141  150 1   
   145  142  143 2   
   146  142  162 1   
   147  144  145 1   
   148  144  151 1   
   149  144  152 1   
   150  145  146 1   
   151  145  153 1   
   152  145  154 1   
   153  146  147 1   
   154  146  155 1   
   155  146  156 1   
   156  147  148 1   
   157  147  157 1   
   158  147  158 1   
   159  148  159 1   
   160  148  160 1   
   161  148  161 1   
   162  162  163 1   
   163  162  171 1   
   164  163  164 1   
   165  163  166 1   
   166  163  172 1   
   167  164  165 2   
   168  164  177 1   
   169  166  167 1   
   170  166  173 1   
   171  166  174 1   
   172  167  168 1   
   173  167  175 1   
   174  167  176 1   
   175  168  169 1   
   176  168  170 1   
   177  177  178 1   
   178  177  182 1   
   179  178  179 1   
   180  178  180 1   
   181  178  181 1   
   182  184  185 1   
   183  184  186 1   
   184  187  188 1   
   185  187  189 1   
   186  190  191 1   
   187  190  192 1   
@<TRIPOS>SUBSTRUCTURE
     1 MOL         1 TEMP              0 ****  ****    0 ROOT
