@<TRIPOS>MOLECULE
MOL
  192   187     1     0     0
SMALL
resp


@<TRIPOS>ATOM
      1 C1         -3.9980    3.0880   -3.7990 c3        1 MOL     -0.324613
      2 C2         -3.2690    2.7900   -2.5320 c         1 MOL      0.686555
      3 O1         -2.4260    1.8660   -2.5170 o         1 MOL     -0.527729
      4 H1         -3.5620    2.5100   -4.6140 hc        1 MOL      0.065957
      5 H2         -5.0490    2.8200   -3.6860 hc        1 MOL      0.065957
      6 H3         -3.9170    4.1510   -4.0250 hc        1 MOL      0.065957
      7 N1         -3.5090    3.6540   -1.5300 n         1 MOL     -0.438122
      8 C3         -2.5910    3.6940   -0.4070 c3        1 MOL     -0.111905
      9 C4         -1.0900    3.7310   -0.7800 c         1 MOL      0.837854
     10 O2         -0.3100    2.8520   -0.2660 o         1 MOL     -0.620301
     11 C5         -2.9580    2.7240    0.6940 c3        1 MOL     -0.365749
     12 C6         -4.4310    2.8180    1.1110 c         1 MOL      0.633330
     13 O3         -4.7720    3.9490    1.4940 o         1 MOL     -0.672077
     14 O4         -5.2040    1.7740    0.9310 o         1 MOL     -0.672077
     15 H4         -4.3620    4.1920   -1.5550 hn        1 MOL      0.215265
     16 H5         -2.8030    4.6960   -0.0410 h1        1 MOL      0.097047
     17 H6         -2.2470    2.9840    1.4830 hc        1 MOL      0.150564
     18 H7         -2.7460    1.7220    0.3290 hc        1 MOL      0.150564
     19 N2         -0.5630    4.6810   -1.4840 n         1 MOL     -0.709818
     20 C7          0.9350    4.8390   -1.6030 c3        1 MOL      0.006677
     21 C8          1.3590    5.5480   -0.2850 c         1 MOL      0.606988
     22 O5          0.6500    6.3500    0.3140 o         1 MOL     -0.584162
     23 C9          1.1820    5.6140   -2.8950 c3        1 MOL      0.020441
     24 C10         0.7140    7.0450   -2.8600 c3        1 MOL      0.091061
     25 C11         0.6130    4.7920   -4.1420 c3        1 MOL     -0.263117
     26 C12         1.0040    7.8620   -4.1490 c3        1 MOL     -0.413042
     27 H8         -1.1300    5.4050   -1.9020 hn        1 MOL      0.335400
     28 H9          1.4000    3.8590   -1.5460 h1        1 MOL      0.192894
     29 H10         2.2630    5.6020   -3.0370 hc        1 MOL      0.059645
     30 H11         1.1530    7.5290   -1.9980 hc        1 MOL      0.023220
     31 H12        -0.3490    7.0590   -2.6370 hc        1 MOL      0.023220
     32 H13         0.9270    5.3110   -5.0360 hc        1 MOL      0.076220
     33 H14         0.9170    3.7470   -4.1340 hc        1 MOL      0.076220
     34 H15        -0.4830    4.8050   -4.1700 hc        1 MOL      0.076220
     35 H16         0.8100    8.9240   -3.9710 hc        1 MOL      0.096269
     36 H17         2.0770    7.8680   -4.3610 hc        1 MOL      0.096269
     37 H18         0.4510    7.5060   -5.0230 hc        1 MOL      0.096269
     38 N3          2.5580    5.3180    0.3440 n         1 MOL     -0.591004
     39 C13         3.5130    4.2510   -0.0300 c3        1 MOL      0.136094
     40 C14         3.6350    3.2450    1.0920 c         1 MOL      0.475421
     41 O6          3.8920    2.0680    0.8040 o         1 MOL     -0.488153
     42 C15         4.9190    4.7460   -0.2860 c3        1 MOL      0.059705
     43 C16         5.3590    5.8780    0.5230 c         1 MOL      0.689448
     44 O7          6.0820    6.7110   -0.0550 o         1 MOL     -0.723269
     45 O8          5.1660    5.8860    1.7560 o         1 MOL     -0.723269
     46 H19         2.6180    5.7820    1.2390 hn        1 MOL      0.305834
     47 H20         3.2040    3.5400   -0.8020 h1        1 MOL     -0.052851
     48 H21         4.8660    5.1540   -1.2890 hc        1 MOL     -0.049460
     49 H22         5.6180    3.9050   -0.2850 hc        1 MOL     -0.049460
     50 N4          3.5130    3.6690    2.4090 n         1 MOL     -0.404302
     51 C17         3.8100    2.7490    3.5010 c3        1 MOL     -0.103226
     52 C18         5.2470    2.2790    3.5840 c         1 MOL      0.560953
     53 O9          6.1110    3.1030    3.4020 o         1 MOL     -0.480866
     54 H23         3.3500    4.6550    2.5660 hn        1 MOL      0.338624
     55 H24         3.1870    1.8720    3.3510 h1        1 MOL      0.072351
     56 H25         3.5840    3.2320    4.4540 h1        1 MOL      0.072351
     57 N5          5.5600    0.9610    3.7950 n         1 MOL     -0.509421
     58 C19         6.9020    0.3390    3.7800 c3        1 MOL      0.176752
     59 C20         7.6500    0.4880    2.4450 c         1 MOL      0.341868
     60 O10         8.8280    0.2500    2.3220 o         1 MOL     -0.522411
     61 C21         6.7590   -1.1270    4.1280 c3        1 MOL     -0.187532
     62 C22         5.4690   -1.7540    3.6140 c         1 MOL      0.722385
     63 O11         5.2900   -1.8270    2.3930 o         1 MOL     -0.699308
     64 O12         4.6620   -2.3510    4.4450 o         1 MOL     -0.699308
     65 H26         4.8490    0.3680    4.2000 hn        1 MOL      0.264781
     66 H27         7.5070    0.9140    4.4820 h1        1 MOL      0.035771
     67 H28         6.6990   -1.1380    5.2170 hc        1 MOL      0.006452
     68 H29         7.6470   -1.6070    3.7050 hc        1 MOL      0.006452
     69 N6          6.8850    0.8350    1.3980 n         1 MOL     -0.094680
     70 C23         7.4950    0.6800    0.0200 c3        1 MOL     -0.385524
     71 C24         7.6740   -0.7120   -0.5370 c         1 MOL      0.493026
     72 O13         8.3940   -0.9720   -1.5220 o         1 MOL     -0.594529
     73 H30         5.8880    0.8460    1.5740 hn        1 MOL      0.176932
     74 H31         8.4970    1.1140    0.0550 h1        1 MOL      0.165156
     75 H32         6.8470    1.1620   -0.7080 h1        1 MOL      0.165156
     76 N7          7.1250   -1.7160    0.1450 n         1 MOL      0.036749
     77 C25         7.1610   -3.1700   -0.1500 c3        1 MOL     -0.124095
     78 C26         6.4890   -3.5400   -1.5110 c         1 MOL      0.440509
     79 O14         6.8200   -4.4730   -2.2100 o         1 MOL     -0.507235
     80 C27         8.6300   -3.6780    0.0340 c3        1 MOL      0.180975
     81 C28         9.1280   -3.5520    1.4310 c3        1 MOL     -0.164305
     82 C29        10.5480   -4.0460    1.4820 c         1 MOL      0.533053
     83 N8         11.5040   -3.1940    1.2660 n         1 MOL     -0.708255
     84 O15        10.8190   -5.2710    1.6840 o         1 MOL     -0.583111
     85 H33         6.6030   -1.4290    0.9700 hn        1 MOL      0.117446
     86 H34         6.6090   -3.6250    0.6760 h1        1 MOL      0.107267
     87 H35         9.2730   -3.2690   -0.7490 hc        1 MOL     -0.011626
     88 H36         8.6170   -4.7630   -0.1040 hc        1 MOL     -0.011626
     89 H37         8.5900   -4.2050    2.1120 hc        1 MOL      0.068570
     90 H38         9.1370   -2.4580    1.5380 hc        1 MOL      0.068570
     91 H39        11.3060   -2.2090    1.2110 hn        1 MOL      0.339890
     92 H40        12.4700   -3.4820    1.1710 hn        1 MOL      0.339890
     93 N9          5.4330   -2.7560   -1.8290 n         1 MOL     -0.177614
     94 C30         4.4750   -2.9830   -2.9390 c3        1 MOL     -0.345653
     95 C31         3.0080   -2.5210   -2.8430 c         1 MOL      0.573333
     96 O16         2.2460   -2.8180   -3.7750 o         1 MOL     -0.550110
     97 C32         4.9920   -2.3980   -4.2930 c3        1 MOL      0.405272
     98 C33         5.1760   -0.8630   -4.1070 c3        1 MOL     -0.354252
     99 C34         6.3220   -2.9350   -4.8680 c3        1 MOL     -0.354252
    100 H41         5.2220   -2.0450   -1.1400 hn        1 MOL      0.132025
    101 H42         4.4210   -4.0600   -3.1080 h1        1 MOL      0.160154
    102 H43         4.2310   -2.5710   -5.0520 hc        1 MOL     -0.036523
    103 H44         4.2870   -0.4210   -3.6550 hc        1 MOL      0.072942
    104 H45         6.0870   -0.6600   -3.5400 hc        1 MOL      0.072942
    105 H46         5.2920   -0.4350   -5.1020 hc        1 MOL      0.072942
    106 H47         6.4610   -2.5390   -5.8730 hc        1 MOL      0.072942
    107 H48         7.1640   -2.6220   -4.2410 hc        1 MOL      0.072942
    108 H49         6.3200   -4.0230   -4.7640 hc        1 MOL      0.072942
    109 N10         2.4970   -1.8340   -1.7970 n         1 MOL     -0.392307
    110 C35         1.1580   -1.2470   -1.8330 c3        1 MOL      0.141449
    111 C36         0.3040   -1.9720   -0.7570 c         1 MOL      0.527550
    112 O17         0.8460   -2.6490    0.1310 o         1 MOL     -0.530748
    113 C37         1.2140    0.3210   -1.5410 c3        1 MOL     -0.260307
    114 C38         1.9200    1.0890   -2.6720 c         1 MOL      0.690204
    115 N11         3.1200    1.6140   -2.5260 n         1 MOL     -0.644615
    116 O18         1.3380    1.3340   -3.7440 o         1 MOL     -0.594047
    117 H50         3.0800   -1.7620   -0.9680 hn        1 MOL      0.270672
    118 H51         0.7860   -1.4290   -2.8450 h1        1 MOL      0.063434
    119 H52         1.7320    0.4220   -0.5850 hc        1 MOL      0.101278
    120 H53         0.1890    0.6780   -1.4580 hc        1 MOL      0.101278
    121 H54         3.6310    1.4040   -1.6870 hn        1 MOL      0.312773
    122 H55         3.4650    2.2170   -3.2670 hn        1 MOL      0.312773
    123 N12        -1.0180   -1.8620   -0.8040 n         1 MOL     -0.573438
    124 C39        -1.9400   -2.5010    0.1910 c3        1 MOL      0.496189
    125 C40        -3.2540   -3.0110   -0.4710 c         1 MOL      0.233960
    126 O19        -3.7120   -2.3740   -1.4580 o         1 MOL     -0.553754
    127 C41        -2.2310   -1.5850    1.4220 c3        1 MOL     -0.165941
    128 C42        -3.2110   -2.1430    2.4460 ca        1 MOL     -0.065079
    129 C43        -4.3260   -1.3350    2.7860 ca        1 MOL     -0.054076
    130 C44        -2.8330   -3.3020    3.1450 ca        1 MOL     -0.054076
    131 C45        -5.1450   -1.8780    3.7970 ca        1 MOL     -0.371830
    132 C46        -3.7230   -3.7240    4.1160 ca        1 MOL     -0.371830
    133 C47        -4.8750   -3.0640    4.3810 ca        1 MOL      0.445170
    134 O20        -5.6660   -3.5520    5.2950 oh        1 MOL     -0.505143
    135 H56        -1.4680   -1.3630   -1.5630 hn        1 MOL      0.307743
    136 H57        -1.3950   -3.3620    0.5540 h1        1 MOL     -0.045279
    137 H58        -2.5240   -0.5960    1.0730 hc        1 MOL      0.056090
    138 H59        -1.2810   -1.3800    1.9200 hc        1 MOL      0.056090
    139 H60        -4.5570   -0.3890    2.3280 ha        1 MOL      0.132685
    140 H61        -1.8540   -3.6800    2.8790 ha        1 MOL      0.132685
    141 H62        -6.0720   -1.3540    3.9590 ha        1 MOL      0.164508
    142 H63        -3.5100   -4.6330    4.6540 ha        1 MOL      0.164508
    143 H64        -6.3380   -2.9340    5.5910 ho        1 MOL      0.352658
    144 N13        -3.7910   -4.0920    0.0990 n         1 MOL     -0.275458
    145 C48        -5.0460   -4.7190   -0.3730 c3        1 MOL      0.006017
    146 C49        -6.1350   -4.3760    0.6780 c         1 MOL      0.523847
    147 O21        -6.1230   -4.9220    1.7460 o         1 MOL     -0.505728
    148 C50        -4.8640   -6.1800   -0.5810 c3        1 MOL      0.155907
    149 C51        -3.7430   -6.4880   -1.5700 c3        1 MOL     -0.057049
    150 C52        -3.6710   -8.0270   -1.8950 c         1 MOL      0.610929
    151 O22        -2.8270   -8.6640   -1.2020 o         1 MOL     -0.656013
    152 O23        -4.4860   -8.5910   -2.6860 o         1 MOL     -0.656013
    153 H65        -3.3610   -4.4810    0.9290 hn        1 MOL      0.283771
    154 H66        -5.2700   -4.3450   -1.3750 h1        1 MOL      0.173275
    155 H67        -5.7860   -6.6090   -0.9740 hc        1 MOL     -0.033558
    156 H68        -4.5480   -6.6110    0.3730 hc        1 MOL     -0.033558
    157 H69        -2.7580   -6.2710   -1.1800 hc        1 MOL     -0.021321
    158 H70        -3.9370   -6.0200   -2.5490 hc        1 MOL     -0.021321
    159 N14        -7.1280   -3.4740    0.3850 n         1 MOL     -0.577069
    160 C53        -6.9790   -2.3140   -0.5410 c3        1 MOL      0.118569
    161 C54        -7.0730   -2.6090   -2.0040 c         1 MOL      0.296512
    162 O24        -7.6460   -3.6240   -2.3850 o         1 MOL     -0.478226
    163 C55        -8.0520   -1.3170   -0.2340 c3        1 MOL      0.043783
    164 C56        -8.0810   -0.7410    1.2210 c3        1 MOL      0.073661
    165 C57        -9.1360    0.2670    1.4890 c         1 MOL      0.714698
    166 O25        -8.9100    1.3580    2.0770 o         1 MOL     -0.736833
    167 O26       -10.3490   -0.0590    1.2760 o         1 MOL     -0.736833
    168 H71        -7.8000   -3.3660    1.1290 hn        1 MOL      0.309183
    169 H72        -6.0400   -1.8480   -0.2470 h1        1 MOL      0.111285
    170 H73        -9.0310   -1.7720   -0.3990 hc        1 MOL     -0.017988
    171 H74        -7.9470   -0.4660   -0.9090 hc        1 MOL     -0.017988
    172 H75        -7.1460   -0.1960    1.2660 hc        1 MOL     -0.068194
    173 H76        -8.1560   -1.4240    2.0620 hc        1 MOL     -0.068194
    174 N15        -6.4640   -1.6990   -2.7860 n         1 MOL     -0.168653
    175 C58        -6.4690   -1.6870   -4.2270 c3        1 MOL     -0.385014
    176 H77        -5.4430   -1.7360   -4.5930 h1        1 MOL      0.141284
    177 H78        -7.0280   -2.5470   -4.5970 h1        1 MOL      0.141284
    178 H79        -6.9360   -0.7690   -4.5820 h1        1 MOL      0.141284
    179 H80        -5.9110   -0.9540   -2.3720 hn        1 MOL      0.232350
    180 Ca1        -7.4480    3.2070    1.1820 Ca        1 MOL      1.739794
    181 O27        -9.7640    4.1650    0.0710 oh        1 MOL     -0.920298
    182 H81       -10.4290    4.5210    0.6610 ho        1 MOL      0.429319
    183 H82       -10.0200    4.4680   -0.8040 ho        1 MOL      0.429319
    184 O28        -7.8260    5.5630    2.3150 oh        1 MOL     -0.920298
    185 H83        -7.4990    5.6280    3.2120 ho        1 MOL      0.429319
    186 H84        -8.3990    6.3210    2.2070 ho        1 MOL      0.429319
    187 O29        -7.5130    1.9010   -0.9520 oh        1 MOL     -0.920298
    188 H85        -8.1140    1.9520   -1.6980 ho        1 MOL      0.429319
    189 H86        -6.7210    1.5010   -1.3070 ho        1 MOL      0.429319
    190 O30        -6.9590    2.6890    3.8850 oh        1 MOL     -0.920298
    191 H87        -7.4090    2.0600    4.4600 ho        1 MOL      0.429319
    192 H88        -6.1520    2.8910    4.3560 ho        1 MOL      0.429319
@<TRIPOS>BOND
     1    1    2 1   
     2    1    4 1   
     3    1    5 1   
     4    1    6 1   
     5    2    3 2   
     6    2    7 1   
     7    7    8 1   
     8    7   15 1   
     9    8    9 1   
    10    8   11 1   
    11    8   16 1   
    12    9   10 2   
    13    9   19 1   
    14   11   12 1   
    15   11   17 1   
    16   11   18 1   
    17   12   13 1   
    18   12   14 1   
    19   19   20 1   
    20   19   27 1   
    21   20   21 1   
    22   20   23 1   
    23   20   28 1   
    24   21   22 2   
    25   21   38 1   
    26   23   24 1   
    27   23   25 1   
    28   23   29 1   
    29   24   26 1   
    30   24   30 1   
    31   24   31 1   
    32   25   32 1   
    33   25   33 1   
    34   25   34 1   
    35   26   35 1   
    36   26   36 1   
    37   26   37 1   
    38   38   39 1   
    39   38   46 1   
    40   39   40 1   
    41   39   42 1   
    42   39   47 1   
    43   40   41 2   
    44   40   50 1   
    45   42   43 1   
    46   42   48 1   
    47   42   49 1   
    48   43   44 1   
    49   43   45 1   
    50   50   51 1   
    51   50   54 1   
    52   51   52 1   
    53   51   55 1   
    54   51   56 1   
    55   52   53 2   
    56   52   57 1   
    57   57   58 1   
    58   57   65 1   
    59   58   59 1   
    60   58   61 1   
    61   58   66 1   
    62   59   60 2   
    63   59   69 1   
    64   61   62 1   
    65   61   67 1   
    66   61   68 1   
    67   62   63 1   
    68   62   64 1   
    69   69   70 1   
    70   69   73 1   
    71   70   71 1   
    72   70   74 1   
    73   70   75 1   
    74   71   72 2   
    75   71   76 1   
    76   76   77 1   
    77   76   85 1   
    78   77   78 1   
    79   77   80 1   
    80   77   86 1   
    81   78   79 2   
    82   78   93 1   
    83   80   81 1   
    84   80   87 1   
    85   80   88 1   
    86   81   82 1   
    87   81   89 1   
    88   81   90 1   
    89   82   83 1   
    90   82   84 2   
    91   83   91 1   
    92   83   92 1   
    93   93   94 1   
    94   93  100 1   
    95   94   95 1   
    96   94   97 1   
    97   94  101 1   
    98   95   96 2   
    99   95  109 1   
   100   97   98 1   
   101   97   99 1   
   102   97  102 1   
   103   98  103 1   
   104   98  104 1   
   105   98  105 1   
   106   99  106 1   
   107   99  107 1   
   108   99  108 1   
   109  109  110 1   
   110  109  117 1   
   111  110  111 1   
   112  110  113 1   
   113  110  118 1   
   114  111  112 2   
   115  111  123 1   
   116  113  114 1   
   117  113  119 1   
   118  113  120 1   
   119  114  115 1   
   120  114  116 2   
   121  115  121 1   
   122  115  122 1   
   123  123  124 1   
   124  123  135 1   
   125  124  125 1   
   126  124  127 1   
   127  124  136 1   
   128  125  126 2   
   129  125  144 1   
   130  127  128 1   
   131  127  137 1   
   132  127  138 1   
   133  128  129 ar  
   134  128  130 ar  
   135  129  131 ar  
   136  129  139 1   
   137  130  132 ar  
   138  130  140 1   
   139  131  133 ar  
   140  131  141 1   
   141  132  133 ar  
   142  132  142 1   
   143  133  134 1   
   144  134  143 1   
   145  144  145 1   
   146  144  153 1   
   147  145  146 1   
   148  145  148 1   
   149  145  154 1   
   150  146  147 2   
   151  146  159 1   
   152  148  149 1   
   153  148  155 1   
   154  148  156 1   
   155  149  150 1   
   156  149  157 1   
   157  149  158 1   
   158  150  151 1   
   159  150  152 1   
   160  159  160 1   
   161  159  168 1   
   162  160  161 1   
   163  160  163 1   
   164  160  169 1   
   165  161  162 2   
   166  161  174 1   
   167  163  164 1   
   168  163  170 1   
   169  163  171 1   
   170  164  165 1   
   171  164  172 1   
   172  164  173 1   
   173  165  166 1   
   174  165  167 1   
   175  174  175 1   
   176  174  179 1   
   177  175  176 1   
   178  175  177 1   
   179  175  178 1   
   180  181  182 1   
   181  181  183 1   
   182  184  185 1   
   183  184  186 1   
   184  187  188 1   
   185  187  189 1   
   186  190  191 1   
   187  190  192 1   
@<TRIPOS>SUBSTRUCTURE
     1 MOL         1 TEMP              0 ****  ****    0 ROOT
