@<TRIPOS>MOLECULE
MOL
  175   173     1     0     0
SMALL
resp


@<TRIPOS>ATOM
      1 C1         -6.8860    7.8860    2.0460 c3        1 MOL     -0.344180
      2 C2         -7.5210    7.0540    0.8910 c         1 MOL      0.716146
      3 O1         -7.6620    7.7390   -0.1670 o         1 MOL     -0.617807
      4 H1         -6.5100    7.2120    2.8150 hc        1 MOL      0.079484
      5 H2         -6.0640    8.4850    1.6540 hc        1 MOL      0.079484
      6 H3         -7.6420    8.5430    2.4780 hc        1 MOL      0.079484
      7 N1         -8.0000    5.8470    1.0750 n         1 MOL     -0.715219
      8 C3         -8.7980    5.0200    0.2060 c3        1 MOL      0.519794
      9 C4         -7.9610    3.8500   -0.3760 c         1 MOL      0.435881
     10 O2         -8.4560    2.7860   -0.6510 o         1 MOL     -0.475820
     11 C5        -10.0580    4.5410    0.9480 c3        1 MOL     -0.389331
     12 C6        -11.1210    3.9760    0.0320 c         1 MOL      0.693748
     13 O3        -11.0080    4.0120   -1.2060 o         1 MOL     -0.716833
     14 O4        -12.1400    3.5140    0.6320 o         1 MOL     -0.716833
     15 H4         -7.6740    5.4140    1.9210 hn        1 MOL      0.328245
     16 H5         -9.0500    5.5050   -0.7300 h1        1 MOL      0.002960
     17 H6        -10.4980    5.3550    1.5360 hc        1 MOL      0.057961
     18 H7         -9.7840    3.8490    1.7390 hc        1 MOL      0.057961
     19 N2         -6.7330    4.1570   -0.6240 n         1 MOL     -0.509500
     20 C7         -5.6790    3.2430   -1.1310 c3        1 MOL      0.294698
     21 C8         -4.8790    2.4330   -0.0310 c         1 MOL      0.399459
     22 O5         -4.3270    3.0530    0.8840 o         1 MOL     -0.558599
     23 C9         -4.5950    3.7200   -2.0980 c3        1 MOL     -0.318908
     24 H8         -6.4190    5.1100   -0.4710 hn        1 MOL      0.242688
     25 H9         -6.2380    2.5520   -1.7560 h1        1 MOL      0.044771
     26 H10        -4.8510    4.0600   -3.1060 hc        1 MOL      0.091109
     27 H11        -4.0420    4.5530   -1.6720 hc        1 MOL      0.091109
     28 H12        -3.7640    3.0310   -2.2270 hc        1 MOL      0.091109
     29 N3         -4.7390    1.1470   -0.0700 n         1 MOL     -0.310090
     30 C10        -5.4150    0.2300   -0.9580 c3        1 MOL      0.045127
     31 C11        -5.6860   -1.1780   -0.4220 c         1 MOL      0.485916
     32 O6         -4.8500   -1.6330    0.3180 o         1 MOL     -0.504126
     33 C12        -4.6610    0.1530   -2.3200 c3        1 MOL      0.029498
     34 C13        -3.2040   -0.2870   -2.1140 c         1 MOL      0.586282
     35 O7         -2.7530   -1.4390   -2.3300 o         1 MOL     -0.708365
     36 O8         -2.3880    0.5280   -1.7330 o         1 MOL     -0.708365
     37 H13        -4.1340    0.7170    0.6210 hn        1 MOL      0.260374
     38 H14        -6.3890    0.6680   -1.1840 h1        1 MOL     -0.017139
     39 H15        -4.7230    1.0360   -2.9560 hc        1 MOL     -0.003564
     40 H16        -5.2840   -0.5500   -2.8700 hc        1 MOL     -0.003564
     41 N4         -6.7340   -1.8480   -0.7940 n         1 MOL     -0.424517
     42 C14        -7.0330   -3.2430   -0.4010 c3        1 MOL      0.085111
     43 C15        -6.8830   -4.2350   -1.4620 c         1 MOL      0.575190
     44 O9         -7.8680   -4.3930   -2.2000 o         1 MOL     -0.592035
     45 H17        -7.4520   -1.5010   -1.4060 hn        1 MOL      0.332320
     46 H18        -8.0260   -3.3880    0.0230 h1        1 MOL      0.033644
     47 H19        -6.2830   -3.5400    0.3400 h1        1 MOL      0.033644
     48 N5         -5.7330   -4.7980   -1.7140 n         1 MOL     -0.580210
     49 C16        -4.3650   -4.5860   -1.0590 c3        1 MOL      0.269112
     50 C17        -4.4320   -5.1550    0.3800 c         1 MOL      0.437188
     51 O10        -4.9380   -6.3000    0.5460 o         1 MOL     -0.565221
     52 C18        -3.2350   -5.2300   -1.8940 c3        1 MOL     -0.341933
     53 C19        -1.9380   -4.5120   -1.7270 c         1 MOL      0.688355
     54 N6         -1.0270   -4.7470   -2.6430 n         1 MOL     -0.816136
     55 O11        -1.6730   -3.6740   -0.8950 o         1 MOL     -0.672637
     56 H20        -5.7440   -5.3950   -2.5290 hn        1 MOL      0.316900
     57 H21        -4.1370   -3.5240   -1.0080 h1        1 MOL      0.035367
     58 H22        -3.4540   -5.3310   -2.9600 hc        1 MOL      0.130753
     59 H23        -3.0230   -6.2200   -1.4960 hc        1 MOL      0.130753
     60 H24        -1.2160   -5.1010   -3.5730 hn        1 MOL      0.367265
     61 H25        -0.0920   -4.3730   -2.5560 hn        1 MOL      0.367265
     62 N7         -3.7150   -4.4880    1.2380 n         1 MOL     -0.114340
     63 C20        -3.4470   -4.8660    2.5770 c3        1 MOL     -0.041660
     64 C21        -1.9500   -5.1000    2.8560 c         1 MOL      0.437825
     65 O12        -1.6270   -5.7140    3.8710 o         1 MOL     -0.557713
     66 H26        -3.3710   -3.5830    0.9440 hn        1 MOL      0.142590
     67 H27        -4.0140   -5.7530    2.8530 h1        1 MOL      0.061112
     68 H28        -3.8600   -4.1090    3.2400 h1        1 MOL      0.061112
     69 N8         -1.0690   -4.5690    2.0140 n         1 MOL     -0.071598
     70 C22         0.3930   -4.7340    2.2010 c3        1 MOL     -0.223577
     71 C23         1.1310   -3.4380    1.9020 c         1 MOL      0.377315
     72 O13         0.8910   -2.8620    0.8790 o         1 MOL     -0.366536
     73 C24         1.0650   -5.8230    1.2800 c3        1 MOL      0.387836
     74 C25         0.7550   -7.2630    1.8280 c3        1 MOL     -0.515167
     75 O14         0.6400   -5.7140   -0.0440 oh        1 MOL     -0.597918
     76 H29        -1.3840   -4.0470    1.2130 hn        1 MOL      0.076373
     77 H30         0.6090   -4.9860    3.2360 h1        1 MOL      0.110138
     78 H31         2.1390   -5.6420    1.2310 h1        1 MOL     -0.015678
     79 H32         1.1170   -4.9800   -0.4290 ho        1 MOL      0.536514
     80 H33        -0.3210   -7.4110    1.9270 hc        1 MOL      0.140510
     81 H34         1.0730   -7.9440    1.0450 hc        1 MOL      0.140510
     82 H35         1.2190   -7.4270    2.8030 hc        1 MOL      0.140510
     83 N9          2.1430   -3.0440    2.7280 n         1 MOL     -0.376923
     84 C26         3.1620   -2.0720    2.2800 c3        1 MOL      0.016259
     85 C27         4.1280   -2.5440    1.1510 c         1 MOL      0.423218
     86 O15         5.2400   -3.0070    1.4050 o         1 MOL     -0.589792
     87 C28         3.9060   -1.5070    3.5620 c3        1 MOL      0.261524
     88 C29         4.9320   -0.4240    3.2490 c3        1 MOL      0.089913
     89 C30         2.8940   -0.9680    4.5840 c3        1 MOL     -0.478111
     90 C31         6.2730   -0.7470    3.7910 c3        1 MOL     -0.119802
     91 H36         2.3940   -3.5740    3.5510 hn        1 MOL      0.280078
     92 H37         2.6470   -1.1880    1.8930 h1        1 MOL      0.057729
     93 H38         4.4360   -2.3280    4.0610 hc        1 MOL     -0.060302
     94 H39         4.6000    0.4990    3.7130 hc        1 MOL     -0.047182
     95 H40         4.9870   -0.2830    2.1680 hc        1 MOL     -0.047182
     96 H41         3.4680   -0.4710    5.3510 hc        1 MOL      0.120438
     97 H42         2.2790   -0.2010    4.1150 hc        1 MOL      0.120438
     98 H43         2.2700   -1.7950    4.9270 hc        1 MOL      0.120438
     99 H44         6.9170    0.1230    3.7520 hc        1 MOL      0.016977
    100 H45         6.2660   -0.8990    4.8720 hc        1 MOL      0.016977
    101 H46         6.8090   -1.5490    3.2660 hc        1 MOL      0.016977
    102 N10         3.7000   -2.4050   -0.0570 n         1 MOL     -0.178513
    103 C32         4.4730   -2.7000   -1.2330 c3        1 MOL      0.358542
    104 C33         5.5930   -1.6950   -1.4840 c         1 MOL      0.452607
    105 O16         6.1740   -1.8030   -2.5790 o         1 MOL     -0.571054
    106 C34         3.6260   -2.8400   -2.4850 c3        1 MOL     -0.312540
    107 C35         2.2610   -3.4590   -2.1730 c         1 MOL      0.859690
    108 O17         2.2920   -4.6810   -1.8230 o         1 MOL     -0.771255
    109 O18         1.2020   -2.7770   -2.2320 o         1 MOL     -0.771255
    110 H47         2.7220   -2.1520   -0.1060 hn        1 MOL      0.000138
    111 H48         4.9950   -3.6390   -1.0530 h1        1 MOL      0.005550
    112 H49         4.1600   -3.4410   -3.2140 hc        1 MOL      0.059674
    113 H50         3.4280   -1.8390   -2.8650 hc        1 MOL      0.059674
    114 N11         5.9350   -0.7520   -0.6470 n         1 MOL     -0.646543
    115 C36         6.8670    0.3280   -1.0400 c3        1 MOL      0.571669
    116 C37         6.3850    1.6870   -0.4780 c         1 MOL      0.225341
    117 O19         5.9880    1.6240    0.6780 o         1 MOL     -0.471519
    118 C38         8.3300   -0.0460   -0.6550 c3        1 MOL     -0.391973
    119 C39         9.3710    0.9300   -1.1210 ca        1 MOL      0.142807
    120 C40         9.9030    1.8910   -0.2290 ca        1 MOL     -0.140115
    121 C41         9.8600    0.9060   -2.3990 ca        1 MOL     -0.140115
    122 C42        10.7110    2.9680   -0.5830 ca        1 MOL     -0.126742
    123 C43        10.7040    1.9620   -2.8150 ca        1 MOL     -0.126742
    124 C44        11.1240    2.9270   -1.9010 ca        1 MOL     -0.117820
    125 H51         5.6310   -0.8160    0.3180 hn        1 MOL      0.415164
    126 H52         6.8710    0.4260   -2.1260 h1        1 MOL     -0.037447
    127 H53         8.5880   -0.9740   -1.1640 hc        1 MOL      0.123081
    128 H54         8.3240   -0.1110    0.4360 hc        1 MOL      0.123081
    129 H55         9.6090    1.7860    0.8070 ha        1 MOL      0.107896
    130 H56         9.5740    0.1920   -3.1490 ha        1 MOL      0.107896
    131 H57        11.0580    3.7190    0.1140 ha        1 MOL      0.117739
    132 H58        10.9120    2.0510   -3.8690 ha        1 MOL      0.117739
    133 H59        11.7640    3.7370   -2.2400 ha        1 MOL      0.088648
    134 N12         6.4560    2.8230   -1.1740 n         1 MOL      0.080037
    135 C45         6.5240    4.1580   -0.5570 c3        1 MOL     -0.350519
    136 C46         5.2640    4.6900    0.0030 c         1 MOL      0.618293
    137 O20         5.2510    5.7390    0.7160 o         1 MOL     -0.585056
    138 C47         7.0860    5.0680   -1.6420 c3        1 MOL      0.011640
    139 C48         6.4910    4.4390   -2.8930 c3        1 MOL     -0.001211
    140 C49         6.6700    2.9790   -2.6210 c3        1 MOL     -0.278102
    141 H60         7.2810    3.9700    0.2170 h1        1 MOL      0.142358
    142 H61         6.7060    6.0860   -1.6650 hc        1 MOL      0.053742
    143 H62         8.1670    5.2370   -1.6060 hc        1 MOL      0.053742
    144 H63         5.4410    4.6910   -2.9750 hc        1 MOL      0.036659
    145 H64         7.0930    4.7940   -3.7330 hc        1 MOL      0.036659
    146 H65         6.0110    2.3410   -3.2100 h1        1 MOL      0.113996
    147 H66         7.6880    2.7210   -2.9060 h1        1 MOL      0.113996
    148 N13         4.1480    3.9960   -0.1410 n         1 MOL     -0.322550
    149 C50         2.9050    4.3050    0.6370 c3        1 MOL     -0.215169
    150 C51         3.1120    4.6110    2.1740 c         1 MOL      0.525623
    151 O21         2.1110    5.1070    2.7480 o         1 MOL     -0.530141
    152 C52         1.8870    3.2520    0.4490 c3        1 MOL      0.008225
    153 C53         2.1900    1.8780    1.0490 c3        1 MOL     -0.129187
    154 C54         1.2750    0.7390    0.5390 c         1 MOL      0.787842
    155 O22         1.6400   -0.1700   -0.2070 o         1 MOL     -0.770806
    156 O23         0.0460    0.7240    0.7180 o         1 MOL     -0.770806
    157 H67         4.2730    3.1150   -0.6320 hn        1 MOL      0.233173
    158 H68         2.4390    5.2230    0.2730 h1        1 MOL      0.136663
    159 H69         1.6340    3.1820   -0.6170 hc        1 MOL      0.070275
    160 H70         0.9870    3.6550    0.9110 hc        1 MOL      0.070275
    161 H71         2.1890    1.9180    2.1360 hc        1 MOL      0.007613
    162 H72         3.1870    1.6160    0.6920 hc        1 MOL      0.007613
    163 N14         4.2380    4.3340    2.8820 n         1 MOL     -0.181747
    164 C55         4.5270    4.7190    4.2770 c3        1 MOL     -0.051687
    165 H73         4.7770    3.8280    4.8540 h1        1 MOL      0.053344
    166 H74         5.3680    5.4120    4.2970 h1        1 MOL      0.053344
    167 H75         3.6490    5.1980    4.7110 h1        1 MOL      0.053344
    168 H76         4.9340    3.7640    2.4130 hn        1 MOL      0.195133
    169 Ca1        -0.4930   -1.2400   -0.9660 Ca        1 MOL      1.768307
    170 O24         0.3140    0.8830   -2.6420 oh        1 MOL     -0.773470
    171 H77         0.4090    1.8250   -2.5660 ho        1 MOL      0.383417
    172 H78         0.4370    0.7100   -3.5780 ho        1 MOL      0.383417
    173 O25        -2.2610   -1.3110    1.2110 oh        1 MOL     -0.773470
    174 H79        -2.0390   -0.4810    1.6400 ho        1 MOL      0.383417
    175 H80        -3.2220   -1.3250    1.1990 ho        1 MOL      0.383417
@<TRIPOS>BOND
     1    1    2 1   
     2    1    4 1   
     3    1    5 1   
     4    1    6 1   
     5    2    3 2   
     6    2    7 1   
     7    7    8 1   
     8    7   15 1   
     9    8    9 1   
    10    8   11 1   
    11    8   16 1   
    12    9   10 2   
    13    9   19 1   
    14   11   12 1   
    15   11   17 1   
    16   11   18 1   
    17   12   13 1   
    18   12   14 1   
    19   19   20 1   
    20   19   24 1   
    21   20   21 1   
    22   20   23 1   
    23   20   25 1   
    24   21   22 2   
    25   21   29 1   
    26   23   26 1   
    27   23   27 1   
    28   23   28 1   
    29   29   30 1   
    30   29   37 1   
    31   30   31 1   
    32   30   33 1   
    33   30   38 1   
    34   31   32 2   
    35   31   41 1   
    36   33   34 1   
    37   33   39 1   
    38   33   40 1   
    39   34   35 1   
    40   34   36 1   
    41   41   42 1   
    42   41   45 1   
    43   42   43 1   
    44   42   46 1   
    45   42   47 1   
    46   43   44 2   
    47   43   48 1   
    48   48   49 1   
    49   48   56 1   
    50   49   50 1   
    51   49   52 1   
    52   49   57 1   
    53   50   51 2   
    54   50   62 1   
    55   52   53 1   
    56   52   58 1   
    57   52   59 1   
    58   53   54 1   
    59   53   55 2   
    60   54   60 1   
    61   54   61 1   
    62   62   63 1   
    63   62   66 1   
    64   63   64 1   
    65   63   67 1   
    66   63   68 1   
    67   64   65 2   
    68   64   69 1   
    69   69   70 1   
    70   69   76 1   
    71   70   71 1   
    72   70   73 1   
    73   70   77 1   
    74   71   72 2   
    75   71   83 1   
    76   73   74 1   
    77   73   75 1   
    78   73   78 1   
    79   74   80 1   
    80   74   81 1   
    81   74   82 1   
    82   75   79 1   
    83   83   84 1   
    84   83   91 1   
    85   84   85 1   
    86   84   87 1   
    87   84   92 1   
    88   85   86 2   
    89   85  102 1   
    90   87   88 1   
    91   87   89 1   
    92   87   93 1   
    93   88   90 1   
    94   88   94 1   
    95   88   95 1   
    96   89   96 1   
    97   89   97 1   
    98   89   98 1   
    99   90   99 1   
   100   90  100 1   
   101   90  101 1   
   102  102  103 1   
   103  102  110 1   
   104  103  104 1   
   105  103  106 1   
   106  103  111 1   
   107  104  105 2   
   108  104  114 1   
   109  106  107 1   
   110  106  112 1   
   111  106  113 1   
   112  107  108 1   
   113  107  109 1   
   114  114  115 1   
   115  114  125 1   
   116  115  116 1   
   117  115  118 1   
   118  115  126 1   
   119  116  117 2   
   120  116  134 1   
   121  118  119 1   
   122  118  127 1   
   123  118  128 1   
   124  119  120 ar  
   125  119  121 ar  
   126  120  122 ar  
   127  120  129 1   
   128  121  123 ar  
   129  121  130 1   
   130  122  124 ar  
   131  122  131 1   
   132  123  124 ar  
   133  123  132 1   
   134  124  133 1   
   135  134  135 1   
   136  134  140 1   
   137  135  136 1   
   138  135  138 1   
   139  135  141 1   
   140  136  137 2   
   141  136  148 1   
   142  138  139 1   
   143  138  142 1   
   144  138  143 1   
   145  139  140 1   
   146  139  144 1   
   147  139  145 1   
   148  140  146 1   
   149  140  147 1   
   150  148  149 1   
   151  148  157 1   
   152  149  150 1   
   153  149  152 1   
   154  149  158 1   
   155  150  151 2   
   156  150  163 1   
   157  152  153 1   
   158  152  159 1   
   159  152  160 1   
   160  153  154 1   
   161  153  161 1   
   162  153  162 1   
   163  154  155 1   
   164  154  156 1   
   165  163  164 1   
   166  163  168 1   
   167  164  165 1   
   168  164  166 1   
   169  164  167 1   
   170  170  171 1   
   171  170  172 1   
   172  173  174 1   
   173  173  175 1   
@<TRIPOS>SUBSTRUCTURE
     1 MOL         1 TEMP              0 ****  ****    0 ROOT
