@<TRIPOS>MOLECULE
MOL
  181   177     1     0     0
SMALL
resp


@<TRIPOS>ATOM
      1 C1         -0.8680    7.0950    2.1190 c3        1 MOL     -0.421246
      2 C2         -2.1850    7.0110    1.4200 c         1 MOL      0.651298
      3 O1         -2.3420    7.6020    0.3290 o         1 MOL     -0.619650
      4 H1         -0.6150    8.1410    2.2910 hc        1 MOL      0.105528
      5 H2         -0.9300    6.5750    3.0750 hc        1 MOL      0.105528
      6 H3         -0.0980    6.6310    1.5020 hc        1 MOL      0.105528
      7 N1         -3.1850    6.3490    1.9510 n         1 MOL     -0.393925
      8 C3         -4.5360    6.2010    1.2910 c3        1 MOL     -0.053301
      9 C4         -4.4050    5.0440    0.2410 c         1 MOL      0.569666
     10 O2         -4.4790    3.8340    0.4840 o         1 MOL     -0.530486
     11 C5         -5.6660    5.9500    2.3060 c3        1 MOL     -0.046674
     12 C6         -7.0510    6.0700    1.9210 c         1 MOL      0.628717
     13 O3         -7.4340    5.3970    0.9340 o         1 MOL     -0.711950
     14 O4         -7.8630    6.6830    2.6730 o         1 MOL     -0.711950
     15 H4         -3.0430    5.9130    2.8540 hn        1 MOL      0.258928
     16 H5         -4.7130    7.1480    0.7890 h1        1 MOL      0.082673
     17 H6         -5.4790    6.6110    3.1610 hc        1 MOL      0.006601
     18 H7         -5.5000    4.9300    2.6500 hc        1 MOL      0.006601
     19 N2         -4.3620    5.4800   -1.0230 n         1 MOL     -0.636799
     20 C7         -4.4680    4.6170   -2.1960 c3        1 MOL      0.364507
     21 C8         -3.3340    3.5880   -2.2320 c         1 MOL      0.314412
     22 O5         -2.2000    3.7630   -1.8430 o         1 MOL     -0.484160
     23 C9         -4.4710    5.4750   -3.4940 c3        1 MOL     -0.323006
     24 H8         -4.3040    6.4810   -1.1490 hn        1 MOL      0.350348
     25 H9         -5.3740    4.0190   -2.1230 h1        1 MOL      0.086972
     26 H10        -4.2210    4.8630   -4.3690 hc        1 MOL      0.081795
     27 H11        -5.4070    6.0130   -3.5880 hc        1 MOL      0.081795
     28 H12        -3.6830    6.2330   -3.4930 hc        1 MOL      0.081795
     29 N3         -3.5260    2.3350   -2.7030 n         1 MOL     -0.213963
     30 C10        -4.7270    1.6540   -3.1180 c3        1 MOL     -0.098822
     31 C11        -5.2600    0.6050   -2.1000 c         1 MOL      0.576643
     32 O6         -4.8340    0.5820   -0.9790 o         1 MOL     -0.426433
     33 C12        -4.4230    0.9520   -4.4530 c3        1 MOL     -0.151694
     34 C13        -3.3330   -0.1150   -4.2470 c         1 MOL      0.642613
     35 O7         -2.6820   -0.2860   -3.1890 o         1 MOL     -0.694971
     36 O8         -3.2370   -0.9500   -5.1670 o         1 MOL     -0.694971
     37 H13        -2.6970    1.7550   -2.6750 hn        1 MOL      0.193915
     38 H14        -5.5380    2.3650   -3.3040 h1        1 MOL      0.029559
     39 H15        -4.0240    1.7120   -5.1400 hc        1 MOL      0.046319
     40 H16        -5.2950    0.5120   -4.9350 hc        1 MOL      0.046319
     41 N4         -6.0840   -0.3580   -2.5290 n         1 MOL     -0.503264
     42 C14        -6.3320   -1.4420   -1.5860 c3        1 MOL      0.091899
     43 C15        -7.4430   -1.1850   -0.6010 c         1 MOL      0.543588
     44 O9         -8.1940   -0.2590   -0.8180 o         1 MOL     -0.504390
     45 H17        -6.5110   -0.3910   -3.4410 hn        1 MOL      0.326902
     46 H18        -5.4550   -1.7110   -1.0080 h1        1 MOL      0.034704
     47 H19        -6.6690   -2.2550   -2.2180 h1        1 MOL      0.034704
     48 N5         -7.7170   -2.1080    0.3250 n         1 MOL     -0.591570
     49 C16        -6.8990   -3.2300    0.7270 c3        1 MOL      0.333924
     50 C17        -5.7010   -2.9920    1.6570 c         1 MOL      0.600737
     51 O10        -5.4980   -1.8490    2.0400 o         1 MOL     -0.488695
     52 C18        -7.9390   -4.3000    1.2060 c3        1 MOL     -0.357476
     53 C19        -8.6550   -3.8340    2.4920 c         1 MOL      0.613472
     54 N6         -8.6370   -4.6250    3.5640 n         1 MOL     -0.774935
     55 O11        -9.1480   -2.7550    2.6340 o         1 MOL     -0.468773
     56 H20        -8.4950   -1.8380    0.9150 hn        1 MOL      0.310547
     57 H21        -6.4310   -3.5660   -0.2050 h1        1 MOL     -0.056369
     58 H22        -7.5250   -5.3040    1.2480 hc        1 MOL      0.090393
     59 H23        -8.6550   -4.3590    0.3880 hc        1 MOL      0.090393
     60 H24        -8.4770   -5.6130    3.4430 hn        1 MOL      0.358996
     61 H25        -8.9640   -4.2420    4.4400 hn        1 MOL      0.358996
     62 N7         -4.9730   -4.0370    1.9720 n         1 MOL     -0.422291
     63 C20        -3.9790   -4.0910    2.9680 c3        1 MOL     -0.302106
     64 C21        -2.5460   -4.1530    2.4540 c         1 MOL      0.506799
     65 O12        -1.6420   -3.7470    3.1890 o         1 MOL     -0.516891
     66 H26        -5.2110   -4.9120    1.5070 hn        1 MOL      0.249910
     67 H27        -4.2090   -4.8770    3.6920 h1        1 MOL      0.157737
     68 H28        -4.0780   -3.1170    3.4520 h1        1 MOL      0.157737
     69 N8         -2.3120   -4.6950    1.2490 n         1 MOL     -0.087631
     70 C22        -0.9500   -5.2060    0.8660 c3        1 MOL     -0.555528
     71 C23         0.0220   -4.0910    0.6040 c         1 MOL      0.779619
     72 O13        -0.3570   -2.9960    0.1070 o         1 MOL     -0.597379
     73 C24        -1.0510   -6.1870   -0.3090 c3        1 MOL      0.543670
     74 C25        -1.9670   -7.4110   -0.1030 c3        1 MOL     -0.512244
     75 O14        -1.7460   -5.6060   -1.3660 oh        1 MOL     -0.646457
     76 H29        -3.1110   -4.8360    0.6410 hn        1 MOL      0.177734
     77 H30        -0.6400   -5.7720    1.7450 h1        1 MOL      0.157998
     78 H31        -0.0680   -6.5170   -0.6500 h1        1 MOL      0.007304
     79 H32        -1.6050   -6.1010   -2.1760 ho        1 MOL      0.413277
     80 H33        -1.8400   -7.8820    0.8760 hc        1 MOL      0.116562
     81 H34        -3.0180   -7.1670   -0.2670 hc        1 MOL      0.116562
     82 H35        -1.7420   -8.1500   -0.8690 hc        1 MOL      0.116562
     83 N9          1.2570   -4.4300    0.9900 n         1 MOL     -0.324844
     84 C26         2.4730   -3.6000    0.9090 c3        1 MOL     -0.476720
     85 C27         3.0920   -3.5720   -0.4800 c         1 MOL      0.536872
     86 O15         3.4200   -4.6330   -1.0460 o         1 MOL     -0.569425
     87 C28         3.4470   -4.0330    2.0360 c3        1 MOL      0.242756
     88 C29         4.6210   -3.0610    1.8230 c3        1 MOL      0.032194
     89 C30         2.8140   -3.8140    3.4330 c3        1 MOL     -0.431029
     90 C31         5.6650   -3.1510    2.9370 c3        1 MOL     -0.181271
     91 H36         1.4370   -5.3430    1.3890 hn        1 MOL      0.283462
     92 H37         2.1390   -2.6010    1.1700 h1        1 MOL      0.262785
     93 H38         3.7780   -5.0690    1.9120 hc        1 MOL      0.010105
     94 H39         4.2910   -2.0300    1.7140 hc        1 MOL      0.025240
     95 H40         5.2110   -3.2210    0.9180 hc        1 MOL      0.025240
     96 H41         2.0250   -4.5610    3.5410 hc        1 MOL      0.109259
     97 H42         3.4970   -3.8420    4.2830 hc        1 MOL      0.109259
     98 H43         2.2400   -2.8860    3.4410 hc        1 MOL      0.109259
     99 H44         6.6530   -2.8720    2.5530 hc        1 MOL      0.024815
    100 H45         5.3240   -2.5180    3.7560 hc        1 MOL      0.024815
    101 H46         5.7860   -4.1610    3.3240 hc        1 MOL      0.024815
    102 N10         3.3650   -2.3940   -1.0270 n         1 MOL      0.020485
    103 C32         4.0650   -2.1530   -2.2590 c3        1 MOL     -0.065557
    104 C33         5.3860   -1.2920   -2.1970 c         1 MOL      0.540086
    105 O16         6.1610   -1.3180   -3.1280 o         1 MOL     -0.559559
    106 C34         3.0320   -1.5090   -3.3140 c3        1 MOL     -0.028374
    107 C35         1.8060   -2.3240   -3.4620 c         1 MOL      0.660290
    108 O17         0.7570   -1.9290   -2.8720 o         1 MOL     -0.690459
    109 O18         1.8160   -3.2750   -4.2130 o         1 MOL     -0.690459
    110 H47         3.1280   -1.5940   -0.4440 hn        1 MOL     -0.075570
    111 H48         4.4430   -3.1400   -2.5580 h1        1 MOL      0.078558
    112 H49         3.4920   -1.2560   -4.2680 hc        1 MOL      0.000285
    113 H50         2.7150   -0.5650   -2.8580 hc        1 MOL      0.000285
    114 N11         5.6160   -0.5530   -1.1240 n         1 MOL     -0.674354
    115 C36         6.8250    0.3170   -0.9930 c3        1 MOL      0.608634
    116 C37         6.4790    1.5350   -0.1060 c         1 MOL      0.129908
    117 O19         7.1080    1.6530    0.9950 o         1 MOL     -0.457512
    118 C38         8.0240   -0.5480   -0.5150 c3        1 MOL     -0.371244
    119 C39         9.3580    0.0960   -0.9670 ca        1 MOL      0.067865
    120 C40         9.6790   -0.0030   -2.3380 ca        1 MOL     -0.110808
    121 C41        10.1710    0.8170   -0.0700 ca        1 MOL     -0.110808
    122 C42        10.9180    0.4920   -2.8320 ca        1 MOL     -0.156040
    123 C43        11.3810    1.3030   -0.5640 ca        1 MOL     -0.156040
    124 C44        11.7080    1.1680   -1.9160 ca        1 MOL     -0.101273
    125 H51         4.8870   -0.2760   -0.4910 hn        1 MOL      0.368134
    126 H52         7.0900    0.8230   -1.9220 h1        1 MOL     -0.043914
    127 H53         7.9680   -1.5200   -1.0150 hc        1 MOL      0.131706
    128 H54         7.9750   -0.7080    0.5560 hc        1 MOL      0.131706
    129 H55         9.0070   -0.5840   -2.9500 ha        1 MOL      0.117365
    130 H56         9.9380    0.9850    0.9740 ha        1 MOL      0.117365
    131 H57        11.2970    0.2230   -3.8150 ha        1 MOL      0.110728
    132 H58        12.0530    1.8420    0.0880 ha        1 MOL      0.110728
    133 H59        12.6230    1.6040   -2.2810 ha        1 MOL      0.082348
    134 N12         5.4570    2.3520   -0.4840 n         1 MOL      0.037027
    135 C45         5.1040    3.5620    0.3120 c3        1 MOL     -0.005938
    136 C46         4.8050    3.3090    1.8290 c         1 MOL      0.222168
    137 O20         5.1040    4.1780    2.6450 o         1 MOL     -0.464500
    138 C47         3.8410    4.1420   -0.4370 c3        1 MOL      0.006024
    139 C48         4.0030    3.5880   -1.8620 c3        1 MOL      0.009659
    140 C49         4.6490    2.1980   -1.7060 c3        1 MOL     -0.272697
    141 H60         5.9200    4.2740    0.2010 h1        1 MOL      0.076871
    142 H61         2.9150    3.8520    0.0650 hc        1 MOL      0.035893
    143 H62         3.8970    5.2210   -0.5550 hc        1 MOL      0.035893
    144 H63         3.0580    3.5890   -2.3940 hc        1 MOL      0.017887
    145 H64         4.6790    4.2290   -2.4250 hc        1 MOL      0.017887
    146 H65         3.7690    1.5630   -1.6030 h1        1 MOL      0.132038
    147 H66         5.2070    1.9830   -2.6160 h1        1 MOL      0.132038
    148 N13         4.2070    2.1300    2.1160 n         1 MOL      0.085307
    149 C50         3.8310    1.7490    3.4630 c3        1 MOL     -0.400924
    150 C51         4.9870    1.5460    4.3800 c         1 MOL      0.543628
    151 O21         4.8910    1.8310    5.5670 o         1 MOL     -0.583974
    152 C52         2.9360    0.4570    3.4220 c3        1 MOL      0.328505
    153 C53         1.8240    0.5380    2.3450 c3        1 MOL     -0.533465
    154 C54         2.1430    0.0070    0.8780 c         1 MOL      0.758638
    155 O22         1.2310   -0.2040    0.0740 o         1 MOL     -0.664904
    156 O23         3.3350   -0.2280    0.6380 o         1 MOL     -0.664904
    157 H67         4.1480    1.4270    1.3930 hn        1 MOL      0.142079
    158 H68         3.2060    2.4990    3.9430 h1        1 MOL      0.144274
    159 H69         2.4960    0.2950    4.4040 hc        1 MOL     -0.020775
    160 H70         3.5640   -0.4090    3.2390 hc        1 MOL     -0.020775
    161 H71         1.5540    1.5830    2.1840 hc        1 MOL      0.133083
    162 H72         1.0040   -0.0310    2.7870 hc        1 MOL      0.133083
    163 N14         6.1010    1.0750    3.9430 n         1 MOL     -0.110448
    164 C55         7.3750    1.0550    4.6270 c3        1 MOL     -0.357198
    165 H73         7.6620    2.0740    4.8900 h1        1 MOL      0.124743
    166 H74         7.2910    0.4570    5.5340 h1        1 MOL      0.124743
    167 H75         8.1320    0.6220    3.9740 h1        1 MOL      0.124743
    168 H76         6.1550    0.8710    2.9560 hn        1 MOL      0.173696
    169 Ca1        -0.8680   -0.6730   -1.3260 Ca        1 MOL      1.731542
    170 O24        -2.9790   -1.5880   -0.0940 oh        1 MOL     -0.820242
    171 H77        -3.1830   -2.4870   -0.3510 ho        1 MOL      0.397393
    172 H78        -3.8260   -1.1520   -0.0410 ho        1 MOL      0.397393
    173 O25        -1.8530   -2.7970   -2.7050 oh        1 MOL     -0.820242
    174 H79        -2.4020   -2.7400   -3.4870 ho        1 MOL      0.397393
    175 H80        -1.1870   -3.4530   -2.9150 ho        1 MOL      0.397393
    176 O26        -1.9890    1.4970   -0.3260 oh        1 MOL     -0.820242
    177 H81        -1.7530    2.4220   -0.4140 ho        1 MOL      0.397393
    178 H82        -2.9350    1.5070   -0.1810 ho        1 MOL      0.397393
    179 O27         0.3190    1.1220   -2.7560 oh        1 MOL     -0.820242
    180 H83         0.7050    0.6740   -3.5070 ho        1 MOL      0.397393
    181 H84         0.5080    2.0550   -2.9120 ho        1 MOL      0.397393
@<TRIPOS>BOND
     1    1    2 1   
     2    1    4 1   
     3    1    5 1   
     4    1    6 1   
     5    2    3 2   
     6    2    7 1   
     7    7    8 1   
     8    7   15 1   
     9    8    9 1   
    10    8   11 1   
    11    8   16 1   
    12    9   10 2   
    13    9   19 1   
    14   11   12 1   
    15   11   17 1   
    16   11   18 1   
    17   12   13 1   
    18   12   14 1   
    19   19   20 1   
    20   19   24 1   
    21   20   21 1   
    22   20   23 1   
    23   20   25 1   
    24   21   22 2   
    25   21   29 1   
    26   23   26 1   
    27   23   27 1   
    28   23   28 1   
    29   29   30 1   
    30   29   37 1   
    31   30   31 1   
    32   30   33 1   
    33   30   38 1   
    34   31   32 2   
    35   31   41 1   
    36   33   34 1   
    37   33   39 1   
    38   33   40 1   
    39   34   35 1   
    40   34   36 1   
    41   41   42 1   
    42   41   45 1   
    43   42   43 1   
    44   42   46 1   
    45   42   47 1   
    46   43   44 2   
    47   43   48 1   
    48   48   49 1   
    49   48   56 1   
    50   49   50 1   
    51   49   52 1   
    52   49   57 1   
    53   50   51 2   
    54   50   62 1   
    55   52   53 1   
    56   52   58 1   
    57   52   59 1   
    58   53   54 1   
    59   53   55 2   
    60   54   60 1   
    61   54   61 1   
    62   62   63 1   
    63   62   66 1   
    64   63   64 1   
    65   63   67 1   
    66   63   68 1   
    67   64   65 2   
    68   64   69 1   
    69   69   70 1   
    70   69   76 1   
    71   70   71 1   
    72   70   73 1   
    73   70   77 1   
    74   71   72 2   
    75   71   83 1   
    76   73   74 1   
    77   73   75 1   
    78   73   78 1   
    79   74   80 1   
    80   74   81 1   
    81   74   82 1   
    82   75   79 1   
    83   83   84 1   
    84   83   91 1   
    85   84   85 1   
    86   84   87 1   
    87   84   92 1   
    88   85   86 2   
    89   85  102 1   
    90   87   88 1   
    91   87   89 1   
    92   87   93 1   
    93   88   90 1   
    94   88   94 1   
    95   88   95 1   
    96   89   96 1   
    97   89   97 1   
    98   89   98 1   
    99   90   99 1   
   100   90  100 1   
   101   90  101 1   
   102  102  103 1   
   103  102  110 1   
   104  103  104 1   
   105  103  106 1   
   106  103  111 1   
   107  104  105 2   
   108  104  114 1   
   109  106  107 1   
   110  106  112 1   
   111  106  113 1   
   112  107  108 1   
   113  107  109 1   
   114  114  115 1   
   115  114  125 1   
   116  115  116 1   
   117  115  118 1   
   118  115  126 1   
   119  116  117 2   
   120  116  134 1   
   121  118  119 1   
   122  118  127 1   
   123  118  128 1   
   124  119  120 ar  
   125  119  121 ar  
   126  120  122 ar  
   127  120  129 1   
   128  121  123 ar  
   129  121  130 1   
   130  122  124 ar  
   131  122  131 1   
   132  123  124 ar  
   133  123  132 1   
   134  124  133 1   
   135  134  135 1   
   136  134  140 1   
   137  135  136 1   
   138  135  138 1   
   139  135  141 1   
   140  136  137 2   
   141  136  148 1   
   142  138  139 1   
   143  138  142 1   
   144  138  143 1   
   145  139  140 1   
   146  139  144 1   
   147  139  145 1   
   148  140  146 1   
   149  140  147 1   
   150  148  149 1   
   151  148  157 1   
   152  149  150 1   
   153  149  152 1   
   154  149  158 1   
   155  150  151 2   
   156  150  163 1   
   157  152  153 1   
   158  152  159 1   
   159  152  160 1   
   160  153  154 1   
   161  153  161 1   
   162  153  162 1   
   163  154  155 1   
   164  154  156 1   
   165  163  164 1   
   166  163  168 1   
   167  164  165 1   
   168  164  166 1   
   169  164  167 1   
   170  170  171 1   
   171  170  172 1   
   172  173  174 1   
   173  173  175 1   
   174  176  177 1   
   175  176  178 1   
   176  179  180 1   
   177  179  181 1   
@<TRIPOS>SUBSTRUCTURE
     1 MOL         1 TEMP              0 ****  ****    0 ROOT
