@<TRIPOS>MOLECULE
MOL
  189   185     1     0     0
SMALL
resp


@<TRIPOS>ATOM
      1 C1          9.7310    0.7080    0.2780 c3        1 MOL     -0.448965
      2 C2          8.3780    0.1040   -0.0380 c         1 MOL      0.818937
      3 O1          7.4380    0.1610    0.7310 o         1 MOL     -0.698005
      4 H1          9.9370    1.5230   -0.4160 hc        1 MOL      0.108061
      5 H2          9.7290    1.0920    1.2980 hc        1 MOL      0.108061
      6 H3         10.5020   -0.0560    0.1780 hc        1 MOL      0.108061
      7 N1          8.3160   -0.4770   -1.2040 n         1 MOL     -0.586903
      8 C3          7.0090   -0.8590   -1.8570 c3        1 MOL     -0.048654
      9 C4          6.4490   -2.2440   -1.4320 c         1 MOL      0.527789
     10 O2          5.9440   -3.1110   -2.1200 o         1 MOL     -0.460902
     11 C5          7.1730   -0.5970   -3.4140 c3        1 MOL     -0.386407
     12 C6          8.1640   -1.5360   -4.0680 c         1 MOL      0.762602
     13 O3          8.1610   -1.6220   -5.3210 o         1 MOL     -0.636554
     14 O4          9.0870   -2.1620   -3.4950 o         1 MOL     -0.636554
     15 H4          9.1390   -0.5830   -1.7770 hn        1 MOL      0.305640
     16 H5          6.2080   -0.2060   -1.5150 h1        1 MOL      0.143022
     17 H6          7.4390    0.4530   -3.5500 hc        1 MOL      0.141482
     18 H7          6.2000   -0.6550   -3.8930 hc        1 MOL      0.141482
     19 N2          6.4890   -2.4740   -0.1170 n         1 MOL     -0.361288
     20 C7          6.0940   -3.7160    0.6160 c3        1 MOL      0.026003
     21 C8          4.5270   -3.9640    0.5690 c         1 MOL      0.507582
     22 O5          4.0840   -5.1040    0.3850 o         1 MOL     -0.545235
     23 C9          6.6180   -3.5820    2.0490 c3        1 MOL     -0.028314
     24 C10         8.1330   -3.4180    2.0930 c3        1 MOL     -0.134980
     25 C11         8.7140   -3.4930    3.5250 c3        1 MOL      0.040827
     26 C12        10.2070   -3.3740    3.3650 c3        1 MOL      0.064364
     27 N3         10.9440   -3.3270    4.6420 n4        1 MOL     -0.248853
     28 H8          6.8860   -1.7560    0.4790 hn        1 MOL      0.209152
     29 H9          6.4620   -4.6280    0.1550 h1        1 MOL      0.085783
     30 H10         6.2000   -4.4680    2.5360 hc        1 MOL      0.046584
     31 H11         6.1150   -2.7730    2.5990 hc        1 MOL      0.046584
     32 H12         8.5200   -2.4960    1.6370 hc        1 MOL      0.061343
     33 H13         8.6360   -4.2450    1.6000 hc        1 MOL      0.061343
     34 H14         8.4440   -4.4450    3.9790 hc        1 MOL      0.004773
     35 H15         8.2450   -2.7330    4.1640 hc        1 MOL      0.004773
     36 H16        10.3020   -2.4550    2.7930 hx        1 MOL      0.062649
     37 H17        10.5160   -4.1810    2.7000 hx        1 MOL      0.062649
     38 H18        10.4020   -3.8250    5.3360 hn        1 MOL      0.238215
     39 H19        11.8750   -3.6960    4.4980 hn        1 MOL      0.238215
     40 H20        10.9000   -2.4070    5.0320 hn        1 MOL      0.238215
     41 N4          3.6410   -2.9670    0.7040 n         1 MOL     -0.389609
     42 C13         3.8170   -1.5940    1.1060 c3        1 MOL      0.044094
     43 C14         3.8040   -0.5850   -0.0520 c         1 MOL      0.202350
     44 O6          3.2910   -0.9160   -1.0990 o         1 MOL     -0.407684
     45 C15         2.7840   -1.2770    2.1480 c3        1 MOL     -0.189403
     46 C16         1.3270   -1.7000    1.7580 c         1 MOL      0.729543
     47 O7          0.6590   -1.0640    0.8710 o         1 MOL     -0.666990
     48 O8          0.9960   -2.7990    2.2210 o         1 MOL     -0.666990
     49 H21         2.7350   -3.3490    0.4930 hn        1 MOL      0.340075
     50 H22         4.7650   -1.3930    1.6030 h1        1 MOL      0.076572
     51 H23         2.7330   -0.1870    2.2070 hc        1 MOL      0.003151
     52 H24         3.0110   -1.7850    3.0770 hc        1 MOL      0.003151
     53 N5          4.3830    0.5760    0.1810 n         1 MOL      0.078215
     54 C17         4.3480    1.6210   -0.7970 c3        1 MOL     -0.612574
     55 C18         2.9600    2.2770   -1.1780 c         1 MOL      0.810944
     56 O9          1.8830    1.8180   -0.7980 o         1 MOL     -0.730473
     57 H25         4.8040    0.7730    1.0840 hn        1 MOL      0.219738
     58 H26         4.6220    1.1580   -1.7460 h1        1 MOL      0.208029
     59 H27         4.9730    2.4250   -0.4040 h1        1 MOL      0.208029
     60 N6          3.0430    3.3700   -2.0370 n         1 MOL     -0.630897
     61 C19         1.9280    4.1290   -2.6630 c3        1 MOL      0.182149
     62 C20         2.2720    5.6190   -3.0200 c         1 MOL      0.531417
     63 O10         3.4030    6.0680   -2.9640 o         1 MOL     -0.553632
     64 C21         1.4630    3.3320   -3.8870 c3        1 MOL     -0.237242
     65 C22         1.0330    1.9090   -3.5240 c         1 MOL      0.786022
     66 O11         1.7530    0.9190   -3.9710 o         1 MOL     -0.717787
     67 O12        -0.1360    1.7320   -3.0470 o         1 MOL     -0.717787
     68 H28         3.9200    3.6920   -2.4280 hn        1 MOL      0.318247
     69 H29         1.1270    4.1590   -1.9270 h1        1 MOL      0.060429
     70 H30         2.2970    3.2220   -4.5740 hc        1 MOL      0.063846
     71 H31         0.6890    3.7810   -4.5150 hc        1 MOL      0.063846
     72 N7          1.3630    6.5170   -3.2350 n         1 MOL     -0.494183
     73 C23        -0.0730    6.2770   -3.3370 c3        1 MOL      0.030349
     74 C24        -0.6720    6.0690   -1.8660 c         1 MOL      0.458983
     75 O13        -0.0090    6.2120   -0.8620 o         1 MOL     -0.385486
     76 H32         1.7120    7.4300   -3.4670 hn        1 MOL      0.330252
     77 H33        -0.3210    5.4780   -4.0310 h1        1 MOL      0.065319
     78 H34        -0.5150    7.1160   -3.8730 h1        1 MOL      0.065319
     79 N8         -1.9490    5.7550   -1.7760 n         1 MOL     -0.606809
     80 C25        -2.5350    5.2080   -0.5570 c3        1 MOL      0.140149
     81 C26        -1.6710    4.1070    0.2320 c         1 MOL      0.764715
     82 O14        -1.1310    3.1600   -0.3300 o         1 MOL     -0.687832
     83 C27        -3.9880    4.8500   -0.7050 c3        1 MOL      0.425733
     84 C28        -4.7220    5.1370    0.5850 c3        1 MOL     -0.603969
     85 O15        -4.1740    3.4890   -1.0610 oh        1 MOL     -0.684768
     86 H35        -2.4750    5.6100   -2.6300 hn        1 MOL      0.308350
     87 H36        -2.5220    6.0030    0.1920 h1        1 MOL      0.023909
     88 H37        -4.4790    5.4100   -1.4960 h1        1 MOL      0.019895
     89 H38        -4.8550    3.5490   -1.7290 ho        1 MOL      0.435247
     90 H39        -4.3340    4.5540    1.4210 hc        1 MOL      0.152615
     91 H40        -4.6280    6.1350    1.0170 hc        1 MOL      0.152615
     92 H41        -5.7640    4.8980    0.3940 hc        1 MOL      0.152615
     93 N9         -1.5550    4.3380    1.5320 n         1 MOL     -0.561677
     94 C29        -0.7440    3.6090    2.5000 c3        1 MOL     -0.011530
     95 C30        -1.1070    2.1170    2.5810 c         1 MOL      0.526277
     96 O16        -0.5950    1.3170    1.7980 o         1 MOL     -0.594141
     97 C31         0.7740    4.0130    2.3440 c3        1 MOL      0.205912
     98 C32         0.9660    5.5820    2.3910 c3        1 MOL      0.011768
     99 C33         1.5900    3.3370    3.3590 c3        1 MOL     -0.350953
    100 C34         2.3900    6.0790    1.9700 c3        1 MOL     -0.249083
    101 H42        -2.2250    4.9610    1.9530 hn        1 MOL      0.294332
    102 H43        -0.9430    4.0300    3.4760 h1        1 MOL      0.063341
    103 H44         1.0360    3.8140    1.2960 hc        1 MOL      0.086208
    104 H45         0.5740    5.8790    3.3630 hc        1 MOL     -0.017863
    105 H46         0.3560    5.9670    1.5820 hc        1 MOL     -0.017863
    106 H47         1.2580    2.3050    3.4330 hc        1 MOL      0.085943
    107 H48         2.5880    3.3420    2.9180 hc        1 MOL      0.085943
    108 H49         1.5080    3.7710    4.3610 hc        1 MOL      0.085943
    109 H50         3.1600    5.6920    2.6360 hc        1 MOL      0.071282
    110 H51         2.6010    5.9930    0.8990 hc        1 MOL      0.071282
    111 H52         2.4490    7.1450    2.1480 hc        1 MOL      0.071282
    112 N10        -2.1000    1.7440    3.3970 n         1 MOL     -0.467995
    113 C35        -2.4820    0.3620    3.5180 c3        1 MOL      0.250314
    114 C36        -3.9050    0.1040    3.0310 c         1 MOL      0.546659
    115 O17        -4.3480   -1.0320    3.0100 o         1 MOL     -0.539957
    116 C37        -2.2200   -0.0840    4.9590 c3        1 MOL      0.370435
    117 C38        -3.2510    0.5950    5.9190 c3        1 MOL     -0.427991
    118 O18        -0.8950    0.2320    5.2850 oh        1 MOL     -0.588588
    119 H53        -2.6440    2.4340    3.9010 hn        1 MOL      0.275024
    120 H54        -1.9430   -0.3120    2.8410 h1        1 MOL     -0.048574
    121 H55        -2.4190   -1.1540    4.8730 h1        1 MOL     -0.009376
    122 H56        -0.3800   -0.5550    5.0980 ho        1 MOL      0.393743
    123 H57        -2.9500    1.6110    6.1530 hc        1 MOL      0.109283
    124 H58        -4.2640    0.4840    5.5270 hc        1 MOL      0.109283
    125 H59        -3.2940    0.0040    6.8380 hc        1 MOL      0.109283
    126 N11        -4.6940    1.1150    2.5790 n         1 MOL     -0.342245
    127 C39        -6.0700    0.9800    2.0260 c3        1 MOL     -0.248226
    128 C40        -6.2070   -0.1020    0.9350 c         1 MOL      0.382874
    129 O19        -5.7230    0.1320   -0.1970 o         1 MOL     -0.456543
    130 C41        -6.6540    2.3230    1.4860 c3        1 MOL      0.489594
    131 C42        -8.1460    2.2820    1.1690 c3        1 MOL     -0.399852
    132 O20        -6.5810    3.2540    2.5230 oh        1 MOL     -0.603152
    133 H60        -4.2690    2.0310    2.6640 hn        1 MOL      0.136718
    134 H61        -6.7820    0.7230    2.8100 h1        1 MOL      0.119495
    135 H62        -6.1420    2.7570    0.6270 h1        1 MOL     -0.022369
    136 H63        -5.6970    3.1880    2.8780 ho        1 MOL      0.363863
    137 H64        -8.2080    1.6730    0.2570 hc        1 MOL      0.117066
    138 H65        -8.7380    1.8910    1.9920 hc        1 MOL      0.117066
    139 H66        -8.4820    3.2660    0.8460 hc        1 MOL      0.117066
    140 N12        -6.7240   -1.2590    1.2530 n         1 MOL     -0.247184
    141 C43        -7.0210   -2.4170    0.3880 c3        1 MOL     -0.024176
    142 C44        -5.8930   -2.8620   -0.5820 c         1 MOL      0.414710
    143 O21        -6.0220   -2.7330   -1.8160 o         1 MOL     -0.469579
    144 C45        -8.3760   -2.1500   -0.3140 c3        1 MOL     -0.174902
    145 C46        -8.9550   -3.4640   -0.9890 c3        1 MOL      0.071497
    146 C47        -9.9940   -3.0860   -2.0200 c3        1 MOL      0.317259
    147 C48       -10.7280   -4.3740   -2.5460 c3        1 MOL      0.062993
    148 N13       -11.6500   -4.1000   -3.6150 n4        1 MOL     -0.061610
    149 H67        -7.1580   -1.2940    2.1570 hn        1 MOL      0.258409
    150 H68        -7.1990   -3.2660    1.0540 h1        1 MOL      0.062689
    151 H69        -8.2770   -1.3360   -1.0300 hc        1 MOL      0.050359
    152 H70        -9.0750   -1.7840    0.4420 hc        1 MOL      0.050359
    153 H71        -9.4350   -4.0120   -0.1740 hc        1 MOL     -0.011680
    154 H72        -8.2500   -4.0620   -1.5690 hc        1 MOL     -0.011680
    155 H73        -9.5440   -2.5730   -2.8630 hc        1 MOL     -0.085545
    156 H74       -10.7610   -2.5010   -1.5100 hc        1 MOL     -0.085545
    157 H75       -11.2760   -4.8870   -1.7500 hx        1 MOL      0.023077
    158 H76        -9.9150   -5.0680   -2.7800 hx        1 MOL      0.023077
    159 H77       -12.1980   -4.9400   -3.7330 hn        1 MOL      0.170199
    160 H78       -12.3710   -3.4850   -3.2580 hn        1 MOL      0.170199
    161 H79       -11.2990   -3.7160   -4.4790 hn        1 MOL      0.170199
    162 N14        -4.7340   -3.1720   -0.0010 n         1 MOL     -0.326107
    163 C49        -3.4910   -3.3880   -0.7710 c3        1 MOL      0.124832
    164 C50        -2.2740   -2.7540   -0.0520 c         1 MOL      0.541528
    165 O22        -1.7810   -1.7200   -0.5970 o         1 MOL     -0.649690
    166 C51        -3.3460   -4.9040   -1.0420 c3        1 MOL      0.095190
    167 C52        -4.1290   -5.3650   -2.2880 c3        1 MOL     -0.343538
    168 C53        -4.1040   -6.8590   -2.3910 c         1 MOL      0.696817
    169 O23        -3.3220   -7.4610   -3.1780 o         1 MOL     -0.634372
    170 O24        -4.8390   -7.5660   -1.6480 o         1 MOL     -0.634372
    171 H80        -4.7150   -3.1410    1.0130 hn        1 MOL      0.252399
    172 H81        -3.6610   -2.8600   -1.7140 h1        1 MOL      0.077064
    173 H82        -3.7670   -5.4360   -0.1880 hc        1 MOL      0.011611
    174 H83        -2.2780   -5.1200   -1.1070 hc        1 MOL      0.011611
    175 H84        -3.7050   -4.8840   -3.1700 hc        1 MOL      0.094171
    176 H85        -5.1640   -5.0800   -2.0690 hc        1 MOL      0.094171
    177 N15        -1.6950   -3.1280    1.1180 n         1 MOL     -0.410085
    178 C54        -2.1450   -4.2450    1.9910 c3        1 MOL     -0.084056
    179 H86        -3.1560   -4.5400    1.7110 h1        1 MOL      0.051915
    180 H87        -1.4720   -5.0940    1.8710 h1        1 MOL      0.051915
    181 H88        -2.1370   -3.9180    3.0310 h1        1 MOL      0.051915
    182 H89        -0.9150   -2.6040    1.4980 hn        1 MOL      0.385997
    183 Ca1        -0.4600    0.6620   -0.6080 Ca        1 MOL      1.815373
    184 O25        -3.1080    1.0490   -0.6280 oh        1 MOL     -0.967409
    185 H90        -3.8320    0.5600   -0.2510 ho        1 MOL      0.465932
    186 H91        -3.4430    1.9400   -0.7240 ho        1 MOL      0.465932
    187 O26         0.6590   -1.1240   -2.4020 oh        1 MOL     -0.967409
    188 H92         1.4980   -1.4570   -2.0980 ho        1 MOL      0.465932
    189 H93         0.8350   -0.8060   -3.2940 ho        1 MOL      0.465932
@<TRIPOS>BOND
     1    1    2 1   
     2    1    4 1   
     3    1    5 1   
     4    1    6 1   
     5    2    3 2   
     6    2    7 1   
     7    7    8 1   
     8    7   15 1   
     9    8    9 1   
    10    8   11 1   
    11    8   16 1   
    12    9   10 2   
    13    9   19 1   
    14   11   12 1   
    15   11   17 1   
    16   11   18 1   
    17   12   13 1   
    18   12   14 1   
    19   19   20 1   
    20   19   28 1   
    21   20   21 1   
    22   20   23 1   
    23   20   29 1   
    24   21   22 2   
    25   21   41 1   
    26   23   24 1   
    27   23   30 1   
    28   23   31 1   
    29   24   25 1   
    30   24   32 1   
    31   24   33 1   
    32   25   26 1   
    33   25   34 1   
    34   25   35 1   
    35   26   27 1   
    36   26   36 1   
    37   26   37 1   
    38   27   38 1   
    39   27   39 1   
    40   27   40 1   
    41   41   42 1   
    42   41   49 1   
    43   42   43 1   
    44   42   45 1   
    45   42   50 1   
    46   43   44 2   
    47   43   53 1   
    48   45   46 1   
    49   45   51 1   
    50   45   52 1   
    51   46   47 1   
    52   46   48 1   
    53   53   54 1   
    54   53   57 1   
    55   54   55 1   
    56   54   58 1   
    57   54   59 1   
    58   55   56 2   
    59   55   60 1   
    60   60   61 1   
    61   60   68 1   
    62   61   62 1   
    63   61   64 1   
    64   61   69 1   
    65   62   63 2   
    66   62   72 1   
    67   64   65 1   
    68   64   70 1   
    69   64   71 1   
    70   65   66 1   
    71   65   67 1   
    72   72   73 1   
    73   72   76 1   
    74   73   74 1   
    75   73   77 1   
    76   73   78 1   
    77   74   75 2   
    78   74   79 1   
    79   79   80 1   
    80   79   86 1   
    81   80   81 1   
    82   80   83 1   
    83   80   87 1   
    84   81   82 2   
    85   81   93 1   
    86   83   84 1   
    87   83   85 1   
    88   83   88 1   
    89   84   90 1   
    90   84   91 1   
    91   84   92 1   
    92   85   89 1   
    93   93   94 1   
    94   93  101 1   
    95   94   95 1   
    96   94   97 1   
    97   94  102 1   
    98   95   96 2   
    99   95  112 1   
   100   97   98 1   
   101   97   99 1   
   102   97  103 1   
   103   98  100 1   
   104   98  104 1   
   105   98  105 1   
   106   99  106 1   
   107   99  107 1   
   108   99  108 1   
   109  100  109 1   
   110  100  110 1   
   111  100  111 1   
   112  112  113 1   
   113  112  119 1   
   114  113  114 1   
   115  113  116 1   
   116  113  120 1   
   117  114  115 2   
   118  114  126 1   
   119  116  117 1   
   120  116  118 1   
   121  116  121 1   
   122  117  123 1   
   123  117  124 1   
   124  117  125 1   
   125  118  122 1   
   126  126  127 1   
   127  126  133 1   
   128  127  128 1   
   129  127  130 1   
   130  127  134 1   
   131  128  129 2   
   132  128  140 1   
   133  130  131 1   
   134  130  132 1   
   135  130  135 1   
   136  131  137 1   
   137  131  138 1   
   138  131  139 1   
   139  132  136 1   
   140  140  141 1   
   141  140  149 1   
   142  141  142 1   
   143  141  144 1   
   144  141  150 1   
   145  142  143 2   
   146  142  162 1   
   147  144  145 1   
   148  144  151 1   
   149  144  152 1   
   150  145  146 1   
   151  145  153 1   
   152  145  154 1   
   153  146  147 1   
   154  146  155 1   
   155  146  156 1   
   156  147  148 1   
   157  147  157 1   
   158  147  158 1   
   159  148  159 1   
   160  148  160 1   
   161  148  161 1   
   162  162  163 1   
   163  162  171 1   
   164  163  164 1   
   165  163  166 1   
   166  163  172 1   
   167  164  165 2   
   168  164  177 1   
   169  166  167 1   
   170  166  173 1   
   171  166  174 1   
   172  167  168 1   
   173  167  175 1   
   174  167  176 1   
   175  168  169 1   
   176  168  170 1   
   177  177  178 1   
   178  177  182 1   
   179  178  179 1   
   180  178  180 1   
   181  178  181 1   
   182  184  185 1   
   183  184  186 1   
   184  187  188 1   
   185  187  189 1   
@<TRIPOS>SUBSTRUCTURE
     1 MOL         1 TEMP              0 ****  ****    0 ROOT
