@<TRIPOS>MOLECULE
MOL
  187   181     1     0     0
SMALL
resp


@<TRIPOS>ATOM
      1 C1          1.3360   -4.8390    3.4030 c3        1 MOL     -0.501225
      2 C2          2.1840   -5.1710    2.1580 c         1 MOL      0.818042
      3 O1          1.6160   -5.1760    1.1140 o         1 MOL     -0.605940
      4 H1          0.7120   -5.6960    3.6560 hc        1 MOL      0.119538
      5 H2          1.9940   -4.6100    4.2410 hc        1 MOL      0.119538
      6 H3          0.7020   -3.9780    3.1920 hc        1 MOL      0.119538
      7 N1          3.4970   -5.3680    2.2640 n         1 MOL     -0.616969
      8 C3          4.2280   -5.9630    1.0900 c3        1 MOL      0.149602
      9 C4          4.7990   -4.9050    0.1250 c         1 MOL      0.750207
     10 O2          4.7660   -3.7150    0.4230 o         1 MOL     -0.562554
     11 C5          5.3280   -6.9550    1.5740 c3        1 MOL     -0.387730
     12 C6          6.2930   -6.3690    2.5730 c         1 MOL      0.773079
     13 O3          5.9420   -6.1640    3.7440 o         1 MOL     -0.720823
     14 O4          7.4580   -6.0910    2.2350 o         1 MOL     -0.720823
     15 H4          4.0020   -5.2550    3.1320 hn        1 MOL      0.312178
     16 H5          3.5250   -6.5860    0.5390 h1        1 MOL      0.034475
     17 H6          5.9060   -7.3400    0.7250 hc        1 MOL      0.071326
     18 H7          4.7850   -7.8830    1.7840 hc        1 MOL      0.071326
     19 N2          5.3860   -5.2770   -0.9910 n         1 MOL     -0.681949
     20 C7          6.1020   -4.4120   -1.9870 c3        1 MOL      0.135957
     21 C8          5.2100   -3.2330   -2.5060 c         1 MOL      0.639086
     22 O5          4.1440   -3.4980   -3.0060 o         1 MOL     -0.529339
     23 C9          6.5960   -5.3720   -3.1070 c3        1 MOL     -0.430948
     24 H8          5.5430   -6.2620   -1.2070 hn        1 MOL      0.331828
     25 H9          6.9670   -3.9990   -1.4640 h1        1 MOL      0.131352
     26 H10         7.3300   -6.1240   -2.7980 hc        1 MOL      0.124756
     27 H11         5.7620   -5.9310   -3.5450 hc        1 MOL      0.124756
     28 H12         7.1650   -4.8750   -3.9000 hc        1 MOL      0.124756
     29 N3          5.6270   -1.9540   -2.3840 n         1 MOL     -0.490753
     30 C10         6.5640   -1.4060   -1.4020 c3        1 MOL      0.010958
     31 C11         6.1470   -0.0510   -0.7500 c         1 MOL      0.694248
     32 O6          5.5840    0.8190   -1.4040 o         1 MOL     -0.555325
     33 C12         8.0010   -1.2890   -2.0340 c3        1 MOL     -0.154147
     34 C13         8.0670   -1.0900   -3.5360 c         1 MOL      0.762813
     35 O7          8.2660    0.0770   -3.9200 o         1 MOL     -0.739554
     36 O8          8.0310   -2.0750   -4.2790 o         1 MOL     -0.739554
     37 H13         5.0210   -1.2740   -2.8260 hn        1 MOL      0.299644
     38 H14         6.6010   -2.1080   -0.5700 h1        1 MOL      0.018400
     39 H15         8.6410   -2.1270   -1.7460 hc        1 MOL      0.003948
     40 H16         8.4200   -0.4400   -1.4970 hc        1 MOL      0.003948
     41 N4          6.4780    0.0810    0.5350 n         1 MOL     -0.595819
     42 C14         6.2210    1.1720    1.4120 c3        1 MOL     -0.018547
     43 C15         4.7100    1.3220    1.7520 c         1 MOL      0.469185
     44 O9          3.8490    0.4150    1.6250 o         1 MOL     -0.497379
     45 H17         7.0140   -0.6780    0.9330 hn        1 MOL      0.348968
     46 H18         6.6700    2.0660    0.9760 h1        1 MOL      0.136426
     47 H19         6.7020    0.9890    2.3680 h1        1 MOL      0.136426
     48 N5          4.2860    2.4990    2.2740 n         1 MOL     -0.334207
     49 C16         5.0960    3.7230    2.4860 c3        1 MOL      0.055789
     50 C17         4.1930    4.9840    2.3080 c         1 MOL      0.465479
     51 O10         3.1380    5.0390    2.9740 o         1 MOL     -0.460323
     52 C18         5.8840    3.7460    3.8440 c3        1 MOL     -0.264714
     53 C19         7.2670    4.1250    3.5510 c         1 MOL      0.684106
     54 N6          7.5630    5.3760    3.5000 n         1 MOL     -0.787165
     55 O11         8.0770    3.2740    3.2950 o         1 MOL     -0.568410
     56 H20         3.3150    2.4840    2.5360 hn        1 MOL      0.257261
     57 H21         5.8110    3.6950    1.6700 h1        1 MOL      0.003706
     58 H22         5.8510    2.7310    4.2330 hc        1 MOL      0.101488
     59 H23         5.4050    4.3810    4.5910 hc        1 MOL      0.101488
     60 H24         6.9770    6.1460    3.7620 hn        1 MOL      0.358222
     61 H25         8.5610    5.5140    3.5620 hn        1 MOL      0.358222
     62 N7          4.6120    6.0400    1.6490 n         1 MOL     -0.303072
     63 C20         3.7710    7.1810    1.4530 c3        1 MOL     -0.361340
     64 C21         2.4420    7.0310    0.6580 c         1 MOL      0.555587
     65 O12         1.7080    8.0400    0.5570 o         1 MOL     -0.539747
     66 H26         5.4710    6.0310    1.1200 hn        1 MOL      0.295261
     67 H27         4.3650    7.8670    0.8520 h1        1 MOL      0.167750
     68 H28         3.5290    7.6850    2.3800 h1        1 MOL      0.167750
     69 N8          1.9600    5.8310    0.2720 n         1 MOL     -0.257569
     70 C22         0.7090    5.6380   -0.4040 c3        1 MOL      0.012239
     71 C23        -0.0380    4.4200    0.1040 c         1 MOL      0.565685
     72 O13         0.5320    3.4710    0.6510 o         1 MOL     -0.510193
     73 C24         0.9770    5.5800   -1.9570 c3        1 MOL      0.261295
     74 C25         1.8280    6.7260   -2.5680 c3        1 MOL     -0.419476
     75 O14         1.6730    4.4010   -2.2780 oh        1 MOL     -0.570593
     76 H29         2.3090    4.9800    0.6900 hn        1 MOL      0.120643
     77 H30         0.1290    6.5420   -0.2310 h1        1 MOL      0.068031
     78 H31        -0.0200    5.4890   -2.3690 h1        1 MOL      0.088144
     79 H32         2.5950    4.5520   -2.0500 ho        1 MOL      0.388162
     80 H33         1.2760    7.6610   -2.4760 hc        1 MOL      0.113706
     81 H34         2.8460    6.7940   -2.1770 hc        1 MOL      0.113706
     82 H35         1.9910    6.3980   -3.5970 hc        1 MOL      0.113706
     83 N9         -1.3250    4.3240   -0.2010 n         1 MOL     -0.506536
     84 C26        -2.2580    3.1580   -0.1000 c3        1 MOL      0.065818
     85 C27        -2.9470    3.0020   -1.4780 c         1 MOL      0.442073
     86 O15        -3.1650    4.0180   -2.1580 o         1 MOL     -0.567445
     87 C28        -3.2890    3.4810    0.9980 c3        1 MOL      0.191491
     88 C29        -4.6020    2.6910    0.9080 c3        1 MOL      0.056854
     89 C30        -2.7180    3.3450    2.3910 c3        1 MOL     -0.283231
     90 C31        -5.5450    3.1210    2.0340 c3        1 MOL     -0.205602
     91 H36        -1.7350    5.1140   -0.6830 hn        1 MOL      0.247449
     92 H37        -1.6260    2.3240    0.1980 h1        1 MOL      0.062742
     93 H38        -3.5330    4.5310    0.8190 hc        1 MOL     -0.007904
     94 H39        -4.3770    1.6220    0.9310 hc        1 MOL      0.002054
     95 H40        -5.0800    2.9550   -0.0340 hc        1 MOL      0.002054
     96 H41        -1.6850    3.6850    2.3770 hc        1 MOL      0.066484
     97 H42        -3.2340    3.9320    3.1480 hc        1 MOL      0.066484
     98 H43        -2.7110    2.2980    2.6800 hc        1 MOL      0.066484
     99 H44        -5.1440    2.8270    3.0120 hc        1 MOL      0.034852
    100 H45        -5.6900    4.1990    1.9980 hc        1 MOL      0.034852
    101 H46        -6.4860    2.5800    1.9530 hc        1 MOL      0.034852
    102 N10        -3.2740    1.7590   -1.9280 n         1 MOL     -0.040586
    103 C32        -4.0010    1.4430   -3.1140 c3        1 MOL      0.000211
    104 C33        -5.4690    1.0530   -2.7310 c         1 MOL      0.402358
    105 O16        -6.3660    1.3780   -3.5290 o         1 MOL     -0.533025
    106 C34        -3.3560    0.3180   -3.8350 c3        1 MOL     -0.022359
    107 C35        -1.8400    0.4120   -4.1460 c         1 MOL      0.714645
    108 O17        -1.1170   -0.3750   -3.5610 o         1 MOL     -0.727371
    109 O18        -1.4360    1.3170   -4.9060 o         1 MOL     -0.727371
    110 H47        -2.9410    0.9400   -1.4400 hn        1 MOL     -0.064681
    111 H48        -4.2110    2.3140   -3.7380 h1        1 MOL      0.076354
    112 H49        -3.8350    0.3170   -4.8120 hc        1 MOL      0.004388
    113 H50        -3.4880   -0.6010   -3.2780 hc        1 MOL      0.004388
    114 N11        -5.7440    0.4120   -1.5520 n         1 MOL     -0.327040
    115 C36        -7.0290   -0.2330   -1.2680 c3        1 MOL      0.044497
    116 C37        -6.8190   -1.4600   -0.3260 c         1 MOL      0.260388
    117 O19        -7.1040   -1.3970    0.9110 o         1 MOL     -0.411498
    118 C38        -7.9930    0.8510   -0.6680 c3        1 MOL     -0.261734
    119 C39        -9.4330    0.3890   -0.3550 ca        1 MOL      0.087536
    120 C40       -10.0410   -0.6020   -1.1890 ca        1 MOL     -0.137327
    121 C41       -10.0840    0.9560    0.7720 ca        1 MOL     -0.137327
    122 C42       -11.3430   -0.9720   -0.8500 ca        1 MOL     -0.086681
    123 C43       -11.3840    0.5210    1.0940 ca        1 MOL     -0.086681
    124 C44       -12.0160   -0.3810    0.2370 ca        1 MOL     -0.180687
    125 H51        -4.9100    0.2260   -1.0230 hn        1 MOL      0.289209
    126 H52        -7.4440   -0.4510   -2.2460 h1        1 MOL      0.085735
    127 H53        -8.0110    1.6980   -1.3620 hc        1 MOL      0.120808
    128 H54        -7.4640    1.1250    0.2450 hc        1 MOL      0.120808
    129 H55        -9.6930   -1.1350   -2.0600 ha        1 MOL      0.113414
    130 H56        -9.6990    1.8480    1.2480 ha        1 MOL      0.113414
    131 H57       -11.8290   -1.6700   -1.5050 ha        1 MOL      0.096787
    132 H58       -11.9070    0.9440    1.9430 ha        1 MOL      0.096787
    133 H59       -13.0460   -0.6410    0.4150 ha        1 MOL      0.103671
    134 N12        -6.1770   -2.5360   -0.7430 n         1 MOL      0.012580
    135 C45        -6.2150   -3.6950    0.0880 c3        1 MOL      0.117527
    136 C46        -5.4710   -3.5080    1.4000 c         1 MOL      0.137169
    137 O20        -5.8020   -4.2380    2.3520 o         1 MOL     -0.480147
    138 C47        -5.6600   -4.8090   -0.7460 c3        1 MOL     -0.102048
    139 C48        -5.9470   -4.3670   -2.2030 c3        1 MOL     -0.122870
    140 C49        -5.8710   -2.8790   -2.1190 c3        1 MOL      0.071042
    141 H60        -7.2790   -3.7880    0.3070 h1        1 MOL      0.049063
    142 H61        -4.5840   -4.7440   -0.5910 hc        1 MOL      0.070229
    143 H62        -6.1090   -5.7250   -0.3590 hc        1 MOL      0.070229
    144 H63        -5.2350   -4.8610   -2.8630 hc        1 MOL      0.040483
    145 H64        -7.0030   -4.6030   -2.3190 hc        1 MOL      0.040483
    146 H65        -4.9190   -2.5380   -2.5330 h1        1 MOL      0.024780
    147 H66        -6.4830   -2.3610   -2.8590 h1        1 MOL      0.024780
    148 N13        -4.5770   -2.5540    1.5940 n         1 MOL     -0.039144
    149 C50        -4.0180   -2.1780    2.9740 c3        1 MOL     -0.095831
    150 C51        -5.0260   -1.9440    4.0950 c         1 MOL      0.400802
    151 O21        -4.8810   -2.3660    5.2390 o         1 MOL     -0.522309
    152 C52        -3.2160   -0.9100    2.8400 c3        1 MOL      0.058516
    153 C53        -2.1270   -0.8770    1.7650 c3        1 MOL     -0.275342
    154 C54        -2.4580   -0.5150    0.2770 c         1 MOL      0.573680
    155 O22        -1.5740    0.0290   -0.3720 o         1 MOL     -0.553861
    156 O23        -3.5750   -0.7290   -0.2320 o         1 MOL     -0.553861
    157 H67        -4.4280   -1.9080    0.8320 hn        1 MOL      0.070931
    158 H68        -3.3580   -2.9740    3.3190 h1        1 MOL      0.104459
    159 H69        -2.7620   -0.5840    3.7730 hc        1 MOL      0.014515
    160 H70        -3.9670   -0.1410    2.6190 hc        1 MOL      0.014515
    161 H71        -1.5890   -1.8250    1.8350 hc        1 MOL      0.083896
    162 H72        -1.3810   -0.1520    2.1270 hc        1 MOL      0.083896
    163 N14        -6.2360   -1.4930    3.6610 n         1 MOL     -0.057749
    164 C55        -7.3990   -1.2140    4.5450 c3        1 MOL     -0.322671
    165 H73        -7.8760   -2.1530    4.8230 h1        1 MOL      0.111238
    166 H74        -7.0580   -0.7010    5.4440 h1        1 MOL      0.111238
    167 H75        -8.1150   -0.5860    4.0170 h1        1 MOL      0.111238
    168 H76        -6.3180   -1.1640    2.7060 hn        1 MOL      0.155154
    169 Ca1         0.6160   -0.4240   -1.6100 Ca        1 MOL      1.730767
    170 O24         2.9540    0.8400   -2.1130 oh        1 MOL     -0.830602
    171 H77         3.5520    0.5490   -2.7970 ho        1 MOL      0.391987
    172 H78         3.4380    1.5100   -1.6340 ho        1 MOL      0.391987
    173 O25        -0.0400    2.0860   -2.4890 oh        1 MOL     -0.830602
    174 H79         0.2480    2.9960   -2.3860 ho        1 MOL      0.391987
    175 H80        -0.6470    2.1120   -3.2230 ho        1 MOL      0.391987
    176 O26         1.9450   -2.0860   -3.3140 oh        1 MOL     -0.830602
    177 H81         2.8120   -2.4660   -3.1830 ho        1 MOL      0.391987
    178 H82         1.9080   -1.8840   -4.2490 ho        1 MOL      0.391987
    179 O27         3.3870   -1.3740   -0.2710 oh        1 MOL     -0.830602
    180 H83         3.5720   -0.6970    0.3900 ho        1 MOL      0.391987
    181 H84         4.0610   -2.0390   -0.1150 ho        1 MOL      0.391987
    182 O28         0.2890   -2.6600   -0.2660 oh        1 MOL     -0.830602
    183 H85         0.7040   -3.2930    0.3270 ho        1 MOL      0.391987
    184 H86        -0.6040   -2.9800   -0.3690 ho        1 MOL      0.391987
    185 O29         1.1600    0.7960    0.6260 oh        1 MOL     -0.830602
    186 H87         0.8670    1.7120    0.6550 ho        1 MOL      0.391987
    187 H88         1.9290    0.7820    1.2060 ho        1 MOL      0.391987
@<TRIPOS>BOND
     1    1    2 1   
     2    1    4 1   
     3    1    5 1   
     4    1    6 1   
     5    2    3 2   
     6    2    7 1   
     7    7    8 1   
     8    7   15 1   
     9    8    9 1   
    10    8   11 1   
    11    8   16 1   
    12    9   10 2   
    13    9   19 1   
    14   11   12 1   
    15   11   17 1   
    16   11   18 1   
    17   12   13 1   
    18   12   14 1   
    19   19   20 1   
    20   19   24 1   
    21   20   21 1   
    22   20   23 1   
    23   20   25 1   
    24   21   22 2   
    25   21   29 1   
    26   23   26 1   
    27   23   27 1   
    28   23   28 1   
    29   29   30 1   
    30   29   37 1   
    31   30   31 1   
    32   30   33 1   
    33   30   38 1   
    34   31   32 2   
    35   31   41 1   
    36   33   34 1   
    37   33   39 1   
    38   33   40 1   
    39   34   35 1   
    40   34   36 1   
    41   41   42 1   
    42   41   45 1   
    43   42   43 1   
    44   42   46 1   
    45   42   47 1   
    46   43   44 2   
    47   43   48 1   
    48   48   49 1   
    49   48   56 1   
    50   49   50 1   
    51   49   52 1   
    52   49   57 1   
    53   50   51 2   
    54   50   62 1   
    55   52   53 1   
    56   52   58 1   
    57   52   59 1   
    58   53   54 1   
    59   53   55 2   
    60   54   60 1   
    61   54   61 1   
    62   62   63 1   
    63   62   66 1   
    64   63   64 1   
    65   63   67 1   
    66   63   68 1   
    67   64   65 2   
    68   64   69 1   
    69   69   70 1   
    70   69   76 1   
    71   70   71 1   
    72   70   73 1   
    73   70   77 1   
    74   71   72 2   
    75   71   83 1   
    76   73   74 1   
    77   73   75 1   
    78   73   78 1   
    79   74   80 1   
    80   74   81 1   
    81   74   82 1   
    82   75   79 1   
    83   83   84 1   
    84   83   91 1   
    85   84   85 1   
    86   84   87 1   
    87   84   92 1   
    88   85   86 2   
    89   85  102 1   
    90   87   88 1   
    91   87   89 1   
    92   87   93 1   
    93   88   90 1   
    94   88   94 1   
    95   88   95 1   
    96   89   96 1   
    97   89   97 1   
    98   89   98 1   
    99   90   99 1   
   100   90  100 1   
   101   90  101 1   
   102  102  103 1   
   103  102  110 1   
   104  103  104 1   
   105  103  106 1   
   106  103  111 1   
   107  104  105 2   
   108  104  114 1   
   109  106  107 1   
   110  106  112 1   
   111  106  113 1   
   112  107  108 1   
   113  107  109 1   
   114  114  115 1   
   115  114  125 1   
   116  115  116 1   
   117  115  118 1   
   118  115  126 1   
   119  116  117 2   
   120  116  134 1   
   121  118  119 1   
   122  118  127 1   
   123  118  128 1   
   124  119  120 ar  
   125  119  121 ar  
   126  120  122 ar  
   127  120  129 1   
   128  121  123 ar  
   129  121  130 1   
   130  122  124 ar  
   131  122  131 1   
   132  123  124 ar  
   133  123  132 1   
   134  124  133 1   
   135  134  135 1   
   136  134  140 1   
   137  135  136 1   
   138  135  138 1   
   139  135  141 1   
   140  136  137 2   
   141  136  148 1   
   142  138  139 1   
   143  138  142 1   
   144  138  143 1   
   145  139  140 1   
   146  139  144 1   
   147  139  145 1   
   148  140  146 1   
   149  140  147 1   
   150  148  149 1   
   151  148  157 1   
   152  149  150 1   
   153  149  152 1   
   154  149  158 1   
   155  150  151 2   
   156  150  163 1   
   157  152  153 1   
   158  152  159 1   
   159  152  160 1   
   160  153  154 1   
   161  153  161 1   
   162  153  162 1   
   163  154  155 1   
   164  154  156 1   
   165  163  164 1   
   166  163  168 1   
   167  164  165 1   
   168  164  166 1   
   169  164  167 1   
   170  170  171 1   
   171  170  172 1   
   172  173  174 1   
   173  173  175 1   
   174  176  177 1   
   175  176  178 1   
   176  179  180 1   
   177  179  181 1   
   178  182  183 1   
   179  182  184 1   
   180  185  186 1   
   181  185  187 1   
@<TRIPOS>SUBSTRUCTURE
     1 MOL         1 TEMP              0 ****  ****    0 ROOT
