@<TRIPOS>MOLECULE
MOL
  181   177     1     0     0
SMALL
resp


@<TRIPOS>ATOM
      1 C1          5.0370   -6.0770    4.5960 c3        1 MOL     -0.284550
      2 C2          4.6360   -4.7310    3.8880 c         1 MOL      0.616045
      3 O1          3.8200   -3.9950    4.4560 o         1 MOL     -0.565489
      4 H1          4.7520   -6.0330    5.6470 hc        1 MOL      0.072278
      5 H2          4.5220   -6.9080    4.1150 hc        1 MOL      0.072278
      6 H3          6.1150   -6.2220    4.5180 hc        1 MOL      0.072278
      7 N1          5.0980   -4.3160    2.6810 n         1 MOL     -0.525911
      8 C3          5.9550   -5.1650    1.7730 c3        1 MOL      0.198633
      9 C4          5.4320   -5.0140    0.2410 c         1 MOL      0.369889
     10 O2          4.2590   -4.6570   -0.0220 o         1 MOL     -0.433402
     11 C5          7.4270   -4.8640    1.9580 c3        1 MOL     -0.140471
     12 C6          7.7810   -3.4700    1.4600 c         1 MOL      0.753352
     13 O3          8.3580   -3.3390    0.3180 o         1 MOL     -0.742840
     14 O4          7.3960   -2.4850    2.1500 o         1 MOL     -0.742840
     15 H4          4.6150   -3.4890    2.3550 hn        1 MOL      0.351026
     16 H5          5.8340   -6.2210    2.0230 h1        1 MOL      0.023240
     17 H6          7.9680   -5.6280    1.3990 hc        1 MOL     -0.004684
     18 H7          7.8730   -4.9830    2.9450 hc        1 MOL     -0.004684
     19 N2          6.3520   -5.2980   -0.7210 n         1 MOL     -0.438978
     20 C7          6.0440   -5.3390   -2.1140 c3        1 MOL      0.265444
     21 C8          5.5880   -4.0120   -2.7310 c         1 MOL      0.451918
     22 O5          5.1100   -3.9390   -3.8920 o         1 MOL     -0.562126
     23 C9          5.2990   -6.6330   -2.4910 c3        1 MOL     -0.348560
     24 H8          7.3200   -5.4610   -0.4770 hn        1 MOL      0.293515
     25 H9          7.0250   -5.5120   -2.5600 h1        1 MOL      0.004530
     26 H10         4.8920   -6.7230   -3.5020 hc        1 MOL      0.092045
     27 H11         5.9590   -7.4580   -2.2400 hc        1 MOL      0.092045
     28 H12         4.4620   -6.6410   -1.7980 hc        1 MOL      0.092045
     29 N3          5.9270   -2.8900   -2.0810 n         1 MOL     -0.413512
     30 C10         5.7660   -1.5580   -2.6320 c3        1 MOL      0.594916
     31 C11         7.1530   -0.8270   -2.6330 c         1 MOL      0.157146
     32 O6          8.1140   -1.2460   -1.9170 o         1 MOL     -0.472574
     33 C12         4.6550   -0.7660   -1.8870 c3        1 MOL     -0.353641
     34 C13         4.8250   -0.8390   -0.3600 c         1 MOL      0.771174
     35 O7          5.9470   -0.8830    0.0750 o         1 MOL     -0.661628
     36 O8          3.8930   -0.6010    0.4660 o         1 MOL     -0.661628
     37 H13         6.4350   -3.0030   -1.2190 hn        1 MOL      0.158792
     38 H14         5.4650   -1.7250   -3.6620 h1        1 MOL     -0.062797
     39 H15         3.7500   -1.3090   -2.1610 hc        1 MOL      0.061189
     40 H16         4.6760    0.2450   -2.3080 hc        1 MOL      0.061189
     41 N4          7.2240    0.2130   -3.4090 n         1 MOL     -0.333182
     42 C14         8.1930    1.2590   -3.0640 c3        1 MOL     -0.045930
     43 C15         7.6650    2.1350   -1.8680 c         1 MOL      0.489971
     44 O9          7.6550    1.6150   -0.7510 o         1 MOL     -0.543312
     45 H17         6.3960    0.4130   -3.9430 hn        1 MOL      0.285137
     46 H18         8.4090    1.9460   -3.8820 h1        1 MOL      0.076491
     47 H19         9.1720    0.9640   -2.6950 h1        1 MOL      0.076491
     48 N5          7.1620    3.3400   -2.1120 n         1 MOL     -0.480735
     49 C16         6.6360    4.2890   -1.1840 c3        1 MOL      0.082383
     50 C17         5.2010    3.9140   -0.5850 c         1 MOL      0.537403
     51 O10         4.4600    3.1170   -1.1570 o         1 MOL     -0.380099
     52 C18         6.5290    5.5680   -2.0490 c3        1 MOL     -0.383648
     53 C19         7.7110    5.9790   -2.9440 c         1 MOL      0.764528
     54 N6          7.4250    6.6270   -4.0790 n         1 MOL     -0.866602
     55 O11         8.8560    5.7810   -2.6550 o         1 MOL     -0.570861
     56 H20         7.0870    3.4950   -3.1140 hn        1 MOL      0.325239
     57 H21         7.3150    4.4820   -0.3460 h1        1 MOL      0.074670
     58 H22         6.3610    6.3860   -1.3490 hc        1 MOL      0.119899
     59 H23         5.5770    5.4720   -2.5750 hc        1 MOL      0.119899
     60 H24         6.4660    6.7970   -4.3450 hn        1 MOL      0.382529
     61 H25         8.1790    6.9990   -4.6400 hn        1 MOL      0.382529
     62 N7          4.7710    4.6060    0.5500 n         1 MOL     -0.587489
     63 C20         3.3670    4.4650    1.0800 c3        1 MOL     -0.021851
     64 C21         2.2070    4.7680    0.0790 c         1 MOL      0.587745
     65 O12         2.4370    5.2650   -1.0310 o         1 MOL     -0.582147
     66 H26         5.3910    5.3140    0.9090 hn        1 MOL      0.317162
     67 H27         3.1400    5.1520    1.8970 h1        1 MOL      0.098687
     68 H28         3.2190    3.4520    1.4530 h1        1 MOL      0.098687
     69 N8          0.9900    4.3710    0.3150 n         1 MOL     -0.452809
     70 C22         0.3480    4.0450    1.5880 c3        1 MOL      0.021513
     71 C23        -0.8420    3.1190    1.3530 c         1 MOL      0.609125
     72 O13        -1.2000    3.0420    0.1500 o         1 MOL     -0.523152
     73 C24        -0.1010    5.2020    2.4980 c3        1 MOL      0.134996
     74 C25         1.0330    6.2090    2.8470 c3        1 MOL     -0.141426
     75 O14        -1.1210    5.8980    1.7660 oh        1 MOL     -0.534347
     76 H29         0.4340    4.8520   -0.3790 hn        1 MOL      0.322274
     77 H30         1.0740    3.4470    2.1430 h1        1 MOL      0.017553
     78 H31        -0.5010    4.7080    3.3850 h1        1 MOL      0.068455
     79 H32        -1.0290    6.8340    1.9480 ho        1 MOL      0.384303
     80 H33         0.8180    7.1460    3.3550 hc        1 MOL      0.029758
     81 H34         1.8330    5.7310    3.4120 hc        1 MOL      0.029758
     82 H35         1.5080    6.4870    1.9180 hc        1 MOL      0.029758
     83 N9         -1.3580    2.4450    2.3630 n         1 MOL     -0.434531
     84 C26        -2.5640    1.5230    2.2850 c3        1 MOL     -0.266412
     85 C27        -3.6700    2.2570    2.9800 c         1 MOL      0.733212
     86 O15        -3.4370    2.6790    4.1380 o         1 MOL     -0.644393
     87 C28        -2.3250    0.1050    2.9020 c3        1 MOL      0.087383
     88 C29        -1.3050   -0.6720    2.0850 c3        1 MOL     -0.107055
     89 C30        -3.6390   -0.7460    3.0690 c3        1 MOL     -0.081012
     90 C31        -0.9940   -2.1500    2.3420 c3        1 MOL     -0.156315
     91 H36        -1.0020    2.5860    3.2970 hn        1 MOL      0.281987
     92 H37        -2.9500    1.2750    1.3020 h1        1 MOL      0.190098
     93 H38        -1.9850    0.1620    3.9420 hc        1 MOL      0.014030
     94 H39        -0.3280   -0.1960    2.1920 hc        1 MOL      0.065873
     95 H40        -1.6140   -0.6880    1.0440 hc        1 MOL      0.065873
     96 H41        -4.2450   -0.6720    2.1690 hc        1 MOL      0.009370
     97 H42        -3.4020   -1.7410    3.4320 hc        1 MOL      0.009370
     98 H43        -4.2910   -0.2780    3.8180 hc        1 MOL      0.009370
     99 H44        -0.1590   -2.5140    1.7460 hc        1 MOL      0.047799
    100 H45        -0.8430   -2.1890    3.4160 hc        1 MOL      0.047799
    101 H46        -1.8710   -2.7880    2.1850 hc        1 MOL      0.047799
    102 N10        -4.8910    2.3760    2.4610 n         1 MOL     -0.472040
    103 C32        -5.3120    2.4050    1.0270 c3        1 MOL      0.473093
    104 C33        -6.6100    1.6430    0.9460 c         1 MOL      0.453348
    105 O16        -7.1160    1.0660    1.8940 o         1 MOL     -0.532020
    106 C34        -5.4170    3.8730    0.6060 c3        1 MOL     -0.322323
    107 C35        -6.2050    4.7290    1.6350 c         1 MOL      0.653691
    108 O17        -5.7580    5.9190    1.9030 o         1 MOL     -0.696822
    109 O18        -7.1100    4.1620    2.2610 o         1 MOL     -0.696822
    110 H47        -5.6580    2.4910    3.0950 hn        1 MOL      0.301991
    111 H48        -4.5940    1.8670    0.4000 h1        1 MOL     -0.074271
    112 H49        -5.9000    3.9100   -0.3640 hc        1 MOL      0.034468
    113 H50        -4.4240    4.3040    0.4580 hc        1 MOL      0.034468
    114 N11        -7.0770    1.4880   -0.3070 n         1 MOL     -0.458530
    115 C36        -8.3590    0.9270   -0.6750 c3        1 MOL      0.065514
    116 C37        -8.4340    0.4910   -2.2230 c         1 MOL      0.254657
    117 O19        -7.9440    1.2540   -3.1040 o         1 MOL     -0.471494
    118 C38        -9.3310    2.0660   -0.4260 c3        1 MOL     -0.236913
    119 C39       -10.7370    1.6380   -0.5070 ca        1 MOL      0.109447
    120 C40       -11.3780    1.6280   -1.7390 ca        1 MOL     -0.188544
    121 C41       -11.3250    0.9750    0.6010 ca        1 MOL     -0.188544
    122 C42       -12.6020    0.9410   -1.8560 ca        1 MOL     -0.142501
    123 C43       -12.5510    0.3360    0.4290 ca        1 MOL     -0.142501
    124 C44       -13.2050    0.2310   -0.8030 ca        1 MOL     -0.085410
    125 H51        -6.6180    1.9490   -1.0770 hn        1 MOL      0.312261
    126 H52        -8.6080    0.0820   -0.0350 h1        1 MOL      0.100586
    127 H53        -9.1290    2.8580   -1.1460 hc        1 MOL      0.116784
    128 H54        -9.3450    2.5730    0.5430 hc        1 MOL      0.116784
    129 H55       -10.8830    1.9730   -2.6320 ha        1 MOL      0.153622
    130 H56       -10.8570    1.0020    1.5710 ha        1 MOL      0.153622
    131 H57       -13.0360    0.8520   -2.8400 ha        1 MOL      0.098161
    132 H58       -12.9220   -0.1840    1.2970 ha        1 MOL      0.098161
    133 H59       -14.1640   -0.2670   -0.8850 ha        1 MOL      0.085992
    134 N12        -9.0090   -0.6800   -2.4440 n         1 MOL      0.107271
    135 C45        -9.7340   -1.5270   -1.5080 c3        1 MOL     -0.153430
    136 C46        -8.9410   -2.3380   -0.5410 c         1 MOL      0.577549
    137 O20        -9.3770   -2.5620    0.5720 o         1 MOL     -0.552716
    138 C47       -10.5610   -2.4380   -2.4580 c3        1 MOL     -0.046424
    139 C48       -10.6550   -1.8380   -3.7800 c3        1 MOL      0.234631
    140 C49        -9.2830   -1.1980   -3.8420 c3        1 MOL     -0.270585
    141 H60       -10.4580   -0.9040   -0.9820 h1        1 MOL      0.128840
    142 H61       -10.0420   -3.3980   -2.4530 hc        1 MOL      0.011452
    143 H62       -11.5990   -2.4800   -2.1300 hc        1 MOL      0.011452
    144 H63       -10.9150   -2.5590   -4.5490 hc        1 MOL     -0.046127
    145 H64       -11.4060   -1.0380   -3.8430 hc        1 MOL     -0.046127
    146 H65        -8.4600   -1.8440   -4.1630 h1        1 MOL      0.098512
    147 H66        -9.3230   -0.3400   -4.5160 h1        1 MOL      0.098512
    148 N13        -7.7590   -2.9060   -0.9530 n         1 MOL     -0.442587
    149 C50        -6.9430   -3.8570   -0.2040 c3        1 MOL      0.444710
    150 C51        -7.4260   -5.2990   -0.4760 c         1 MOL      0.309827
    151 O21        -7.3360   -5.7730   -1.6610 o         1 MOL     -0.561034
    152 C52        -5.4810   -3.5940   -0.5240 c3        1 MOL     -0.328429
    153 C53        -4.8820   -2.2730   -0.0530 c3        1 MOL     -0.079525
    154 C54        -4.1770   -1.7690   -1.2030 c         1 MOL      0.718721
    155 O22        -3.1440   -2.3620   -1.6100 o         1 MOL     -0.679643
    156 O23        -4.6520   -0.8150   -1.8340 o         1 MOL     -0.679643
    157 H67        -7.3270   -2.6080   -1.8200 hn        1 MOL      0.250813
    158 H68        -6.8810   -3.5810    0.8450 h1        1 MOL      0.010189
    159 H69        -5.4700   -3.6140   -1.6070 hc        1 MOL      0.090560
    160 H70        -4.8570   -4.4150   -0.1530 hc        1 MOL      0.090560
    161 H71        -4.1650   -2.5020    0.7340 hc        1 MOL      0.017164
    162 H72        -5.6030   -1.5700    0.3690 hc        1 MOL      0.017164
    163 N14        -7.8230   -6.0670    0.5090 n         1 MOL     -0.318493
    164 C55        -8.2110   -5.6600    1.8770 c3        1 MOL     -0.080044
    165 H73        -7.3360   -5.6910    2.5260 h1        1 MOL      0.057211
    166 H74        -8.6110   -4.6470    1.8550 h1        1 MOL      0.057211
    167 H75        -8.9690   -6.3430    2.2580 h1        1 MOL      0.057211
    168 H76        -7.8640   -7.0760    0.4010 hn        1 MOL      0.269523
    169 Ca1         8.4320   -0.5440    0.5520 Ca        1 MOL      1.806283
    170 O24        10.1350    1.6140    0.7820 oh        1 MOL     -0.860625
    171 H77         9.9100    2.5070    1.0200 ho        1 MOL      0.401222
    172 H78        11.0830    1.6290    0.6420 ho        1 MOL      0.401222
    173 O25         7.1390    1.0290    2.3740 oh        1 MOL     -0.860625
    174 H79         7.4180    1.7010    3.0000 ho        1 MOL      0.401222
    175 H80         6.1990    1.1730    2.2760 ho        1 MOL      0.401222
    176 O26        10.7140   -0.9470   -0.8620 oh        1 MOL     -0.860625
    177 H81        11.3730   -0.4720   -1.3700 ho        1 MOL      0.401222
    178 H82        11.1050   -1.8020   -0.7060 ho        1 MOL      0.401222
    179 O27        10.1730   -1.4710    2.4500 oh        1 MOL     -0.860625
    180 H83        10.5860   -0.8320    3.0350 ho        1 MOL      0.401222
    181 H84        10.1720   -2.2800    2.9540 ho        1 MOL      0.401222
@<TRIPOS>BOND
     1    1    2 1   
     2    1    4 1   
     3    1    5 1   
     4    1    6 1   
     5    2    3 2   
     6    2    7 1   
     7    7    8 1   
     8    7   15 1   
     9    8    9 1   
    10    8   11 1   
    11    8   16 1   
    12    9   10 2   
    13    9   19 1   
    14   11   12 1   
    15   11   17 1   
    16   11   18 1   
    17   12   13 1   
    18   12   14 1   
    19   19   20 1   
    20   19   24 1   
    21   20   21 1   
    22   20   23 1   
    23   20   25 1   
    24   21   22 2   
    25   21   29 1   
    26   23   26 1   
    27   23   27 1   
    28   23   28 1   
    29   29   30 1   
    30   29   37 1   
    31   30   31 1   
    32   30   33 1   
    33   30   38 1   
    34   31   32 2   
    35   31   41 1   
    36   33   34 1   
    37   33   39 1   
    38   33   40 1   
    39   34   35 1   
    40   34   36 1   
    41   41   42 1   
    42   41   45 1   
    43   42   43 1   
    44   42   46 1   
    45   42   47 1   
    46   43   44 2   
    47   43   48 1   
    48   48   49 1   
    49   48   56 1   
    50   49   50 1   
    51   49   52 1   
    52   49   57 1   
    53   50   51 2   
    54   50   62 1   
    55   52   53 1   
    56   52   58 1   
    57   52   59 1   
    58   53   54 1   
    59   53   55 2   
    60   54   60 1   
    61   54   61 1   
    62   62   63 1   
    63   62   66 1   
    64   63   64 1   
    65   63   67 1   
    66   63   68 1   
    67   64   65 2   
    68   64   69 1   
    69   69   70 1   
    70   69   76 1   
    71   70   71 1   
    72   70   73 1   
    73   70   77 1   
    74   71   72 2   
    75   71   83 1   
    76   73   74 1   
    77   73   75 1   
    78   73   78 1   
    79   74   80 1   
    80   74   81 1   
    81   74   82 1   
    82   75   79 1   
    83   83   84 1   
    84   83   91 1   
    85   84   85 1   
    86   84   87 1   
    87   84   92 1   
    88   85   86 2   
    89   85  102 1   
    90   87   88 1   
    91   87   89 1   
    92   87   93 1   
    93   88   90 1   
    94   88   94 1   
    95   88   95 1   
    96   89   96 1   
    97   89   97 1   
    98   89   98 1   
    99   90   99 1   
   100   90  100 1   
   101   90  101 1   
   102  102  103 1   
   103  102  110 1   
   104  103  104 1   
   105  103  106 1   
   106  103  111 1   
   107  104  105 2   
   108  104  114 1   
   109  106  107 1   
   110  106  112 1   
   111  106  113 1   
   112  107  108 1   
   113  107  109 1   
   114  114  115 1   
   115  114  125 1   
   116  115  116 1   
   117  115  118 1   
   118  115  126 1   
   119  116  117 2   
   120  116  134 1   
   121  118  119 1   
   122  118  127 1   
   123  118  128 1   
   124  119  120 ar  
   125  119  121 ar  
   126  120  122 ar  
   127  120  129 1   
   128  121  123 ar  
   129  121  130 1   
   130  122  124 ar  
   131  122  131 1   
   132  123  124 ar  
   133  123  132 1   
   134  124  133 1   
   135  134  135 1   
   136  134  140 1   
   137  135  136 1   
   138  135  138 1   
   139  135  141 1   
   140  136  137 2   
   141  136  148 1   
   142  138  139 1   
   143  138  142 1   
   144  138  143 1   
   145  139  140 1   
   146  139  144 1   
   147  139  145 1   
   148  140  146 1   
   149  140  147 1   
   150  148  149 1   
   151  148  157 1   
   152  149  150 1   
   153  149  152 1   
   154  149  158 1   
   155  150  151 2   
   156  150  163 1   
   157  152  153 1   
   158  152  159 1   
   159  152  160 1   
   160  153  154 1   
   161  153  161 1   
   162  153  162 1   
   163  154  155 1   
   164  154  156 1   
   165  163  164 1   
   166  163  168 1   
   167  164  165 1   
   168  164  166 1   
   169  164  167 1   
   170  170  171 1   
   171  170  172 1   
   172  173  174 1   
   173  173  175 1   
   174  176  177 1   
   175  176  178 1   
   176  179  180 1   
   177  179  181 1   
@<TRIPOS>SUBSTRUCTURE
     1 MOL         1 TEMP              0 ****  ****    0 ROOT
