@<TRIPOS>MOLECULE
MOL
  198   191     1     0     0
SMALL
resp


@<TRIPOS>ATOM
      1 C1          6.4650    0.9070    5.7500 c3        1 MOL     -0.372958
      2 C2          5.7200    0.6930    4.3920 c         1 MOL      0.645366
      3 O1          5.2890    1.6720    3.7770 o         1 MOL     -0.596000
      4 H1          5.7910    1.3820    6.4620 hc        1 MOL      0.097607
      5 H2          6.7890   -0.0560    6.1430 hc        1 MOL      0.097607
      6 H3          7.3340    1.5460    5.5920 hc        1 MOL      0.097607
      7 N1          5.6630   -0.5120    3.8260 n         1 MOL     -0.376431
      8 C3          5.0420   -0.8240    2.4900 c3        1 MOL      0.299349
      9 C4          3.5310   -0.7890    2.3200 c         1 MOL      0.123595
     10 O2          3.0820   -0.9770    1.2040 o         1 MOL     -0.196087
     11 C5          5.6560   -2.1260    1.9540 c3        1 MOL     -0.106747
     12 C6          7.1430   -2.3770    2.1960 c         1 MOL      0.700621
     13 O3          7.4880   -2.6370    3.3230 o         1 MOL     -0.704148
     14 O4          7.8790   -2.3170    1.2490 o         1 MOL     -0.704148
     15 H4          6.0180   -1.2940    4.3580 hn        1 MOL      0.198209
     16 H5          5.4250   -0.0100    1.8780 h1        1 MOL      0.043384
     17 H6          5.5080   -2.1900    0.8680 hc        1 MOL     -0.035891
     18 H7          5.0990   -2.9150    2.4710 hc        1 MOL     -0.035891
     19 N2          2.7710   -0.3890    3.3470 n         1 MOL     -0.360926
     20 C7          1.2870   -0.2000    3.1880 c3        1 MOL      0.254829
     21 C8          0.8520    1.2440    2.8890 c         1 MOL      0.284810
     22 O5          1.1550    2.2070    3.5930 o         1 MOL     -0.499614
     23 C9          0.5610   -0.7560    4.4700 c3        1 MOL     -0.023702
     24 C10         0.7620   -2.2430    4.7230 c3        1 MOL     -0.188662
     25 C11        -0.3720   -2.8790    5.5740 c3        1 MOL      0.039619
     26 C12        -0.1430   -4.4500    5.7960 c3        1 MOL      0.051293
     27 N3         -1.2980   -5.1260    6.4880 n4        1 MOL     -0.258198
     28 H8          3.2510   -0.3880    4.2300 hn        1 MOL      0.238295
     29 H9          0.8940   -0.8150    2.3820 h1        1 MOL     -0.021987
     30 H10        -0.4980   -0.6260    4.2540 hc        1 MOL      0.043385
     31 H11         0.7400   -0.1050    5.3180 hc        1 MOL      0.043385
     32 H12         1.7200   -2.3950    5.2190 hc        1 MOL      0.070316
     33 H13         0.6170   -2.7400    3.7680 hc        1 MOL      0.070316
     34 H14        -1.2540   -2.7300    4.9580 hc        1 MOL      0.022825
     35 H15        -0.5230   -2.4530    6.5670 hc        1 MOL      0.022825
     36 H16         0.6700   -4.5190    6.5180 hx        1 MOL      0.062487
     37 H17         0.0540   -4.8900    4.8220 hx        1 MOL      0.062487
     38 H18        -1.3700   -4.8930    7.4750 hn        1 MOL      0.281322
     39 H19        -2.1730   -4.8910    6.0500 hn        1 MOL      0.281322
     40 H20        -1.1450   -6.1220    6.4330 hn        1 MOL      0.281322
     41 N4          0.0320    1.5600    1.8890 n         1 MOL     -0.038488
     42 C13        -0.8180    0.8010    0.9570 c3        1 MOL     -0.365272
     43 C14        -1.6710   -0.3690    1.4950 c         1 MOL      0.576586
     44 O6         -1.1230   -1.4170    1.7540 o         1 MOL     -0.513292
     45 C15        -0.0640    0.4540   -0.3790 c3        1 MOL     -0.135991
     46 C16         0.3970    1.7770   -1.2090 c         1 MOL      0.700075
     47 O7         -0.0810    2.9300   -0.9200 o         1 MOL     -0.742625
     48 O8          1.0980    1.6220   -2.2750 o         1 MOL     -0.742625
     49 H21        -0.0130    2.5690    1.8140 hn        1 MOL      0.159308
     50 H22        -1.5650    1.4740    0.5450 h1        1 MOL      0.049101
     51 H23        -0.7500   -0.0980   -1.0330 hc        1 MOL      0.089080
     52 H24         0.7710   -0.2160   -0.2110 hc        1 MOL      0.089080
     53 N5         -2.9560   -0.2240    1.7370 n         1 MOL     -0.335038
     54 C17        -3.7810    0.9730    1.7070 c3        1 MOL     -0.077795
     55 C18        -5.0540    0.9690    2.5390 c         1 MOL      0.435851
     56 O9         -5.4130   -0.0580    3.1350 o         1 MOL     -0.520497
     57 H25        -3.4430   -1.0560    2.0310 hn        1 MOL      0.249530
     58 H26        -4.1150    1.2080    0.7020 h1        1 MOL      0.118691
     59 H27        -3.1510    1.7680    2.1070 h1        1 MOL      0.118691
     60 N6         -5.7930    2.0780    2.6230 n         1 MOL     -0.349866
     61 C19        -5.6690    3.3360    1.8230 c3        1 MOL      0.055453
     62 C20        -6.4620    3.0950    0.4830 c         1 MOL      0.702275
     63 O10        -7.4160    2.2680    0.4150 o         1 MOL     -0.469391
     64 C21        -6.0950    4.5180    2.6350 c3        1 MOL     -0.225602
     65 C22        -7.4340    4.4560    3.2140 c         1 MOL      0.703799
     66 O11        -7.7270    3.6930    4.1980 o         1 MOL     -0.668247
     67 O12        -8.3080    5.0190    2.5640 o         1 MOL     -0.668247
     68 H28        -6.5200    2.0710    3.3170 hn        1 MOL      0.265347
     69 H29        -4.6080    3.3920    1.5400 h1        1 MOL     -0.045232
     70 H30        -6.1410    5.3490    1.9300 hc        1 MOL      0.037864
     71 H31        -5.4690    4.6600    3.5210 hc        1 MOL      0.037864
     72 N7         -5.9860    3.8190   -0.5510 n         1 MOL     -0.544663
     73 C23        -6.5410    3.5960   -1.8810 c3        1 MOL     -0.255613
     74 C24        -6.0130    2.3020   -2.5920 c         1 MOL      0.571104
     75 O13        -6.0990    2.3160   -3.7920 o         1 MOL     -0.570262
     76 H32        -5.3570    4.6020   -0.4250 hn        1 MOL      0.327877
     77 H33        -6.2490    4.4170   -2.5340 h1        1 MOL      0.160087
     78 H34        -7.6240    3.4870   -1.9250 h1        1 MOL      0.160087
     79 N8         -5.5300    1.2840   -1.8720 n         1 MOL     -0.315334
     80 C25        -4.9650    0.0340   -2.4090 c3        1 MOL      0.037866
     81 C26        -5.3120   -1.1020   -1.4450 c         1 MOL      0.526352
     82 O14        -5.4380   -0.7930   -0.2550 o         1 MOL     -0.430587
     83 C27        -3.4640    0.1180   -2.6710 c3        1 MOL      0.235210
     84 C28        -3.0500    1.3270   -3.4870 c3        1 MOL     -0.674962
     85 O15        -3.1170   -0.9280   -3.4700 oh        1 MOL     -0.613239
     86 H35        -5.6550    1.4190   -0.8760 hn        1 MOL      0.087422
     87 H36        -5.3970   -0.1730   -3.3920 h1        1 MOL      0.094585
     88 H37        -2.9050   -0.0360   -1.7410 h1        1 MOL      0.117342
     89 H38        -2.1940   -0.7510   -3.6400 ho        1 MOL      0.419494
     90 H39        -3.4310    1.1970   -4.5020 hc        1 MOL      0.192845
     91 H40        -3.4160    2.2660   -3.0790 hc        1 MOL      0.192845
     92 H41        -1.9660    1.2870   -3.5670 hc        1 MOL      0.192845
     93 N9         -5.4540   -2.2970   -1.9360 n         1 MOL     -0.543183
     94 C29        -5.7240   -3.4930   -1.0850 c3        1 MOL      0.005263
     95 C30        -4.4850   -4.2840   -0.6790 c         1 MOL      0.409769
     96 O16        -4.5740   -5.2790    0.0400 o         1 MOL     -0.522206
     97 C31        -6.6460   -4.2970   -2.0020 c3        1 MOL      0.290301
     98 C32        -7.5760   -5.3170   -1.2660 c3        1 MOL     -0.070550
     99 C33        -6.0360   -4.9040   -3.2500 c3        1 MOL     -0.444044
    100 C34        -8.4210   -4.6820   -0.1050 c3        1 MOL     -0.265954
    101 H42        -5.2610   -2.3850   -2.9180 hn        1 MOL      0.325588
    102 H43        -6.2770   -3.1840   -0.1860 h1        1 MOL      0.122967
    103 H44        -7.2660   -3.4860   -2.3800 hc        1 MOL      0.003119
    104 H45        -7.0350   -6.2280   -1.0210 hc        1 MOL      0.044581
    105 H46        -8.3450   -5.5500   -1.9980 hc        1 MOL      0.044581
    106 H47        -6.8160   -4.9140   -4.0090 hc        1 MOL      0.102638
    107 H48        -5.2860   -4.2030   -3.5960 hc        1 MOL      0.102638
    108 H49        -5.5390   -5.8710   -3.1500 hc        1 MOL      0.102638
    109 H50        -7.8750   -4.8410    0.8260 hc        1 MOL      0.070889
    110 H51        -8.5010   -3.6010   -0.1190 hc        1 MOL      0.070889
    111 H52        -9.3860   -5.1970   -0.1150 hc        1 MOL      0.070889
    112 N10        -3.3170   -3.9940   -1.2660 n         1 MOL      0.037488
    113 C35        -2.0540   -4.7460   -1.0380 c3        1 MOL     -0.561420
    114 C36        -0.8250   -3.8540   -1.2430 c         1 MOL      0.844414
    115 O17        -1.0130   -2.7560   -1.8090 o         1 MOL     -0.523768
    116 C37        -1.9710   -6.0340   -1.8160 c3        1 MOL      0.500093
    117 C38        -2.0660   -5.8870   -3.2800 c3        1 MOL     -0.438802
    118 O18        -3.0090   -6.9290   -1.4360 oh        1 MOL     -0.612173
    119 H53        -3.3080   -3.0250   -1.5730 hn        1 MOL      0.062466
    120 H54        -2.0200   -4.9930    0.0280 h1        1 MOL      0.151522
    121 H55        -1.0030   -6.4640   -1.5770 h1        1 MOL     -0.007082
    122 H56        -3.5670   -6.3820   -0.8850 ho        1 MOL      0.356538
    123 H57        -3.1140   -5.8630   -3.6060 hc        1 MOL      0.110997
    124 H58        -1.5700   -5.0040   -3.7040 hc        1 MOL      0.110997
    125 H59        -1.7830   -6.8290   -3.7480 hc        1 MOL      0.110997
    126 N11         0.2680   -4.2710   -0.7050 n         1 MOL     -0.591554
    127 C39         1.4070   -3.4560   -0.3690 c3        1 MOL      0.006727
    128 C40         2.2280   -3.0490   -1.5900 c         1 MOL      0.300141
    129 O19         2.1290   -3.6520   -2.6760 o         1 MOL     -0.497109
    130 C41         2.3020   -4.0760    0.6870 c3        1 MOL      0.533207
    131 C42         2.9170   -5.4640    0.3160 c3        1 MOL     -0.152176
    132 O20         1.6520   -4.2900    1.9010 oh        1 MOL     -0.620404
    133 H60         0.3210   -5.2180   -0.3360 hn        1 MOL      0.306824
    134 H61         1.0520   -2.5120    0.0210 h1        1 MOL      0.128246
    135 H62         3.1050   -3.3450    0.7760 h1        1 MOL     -0.087492
    136 H63         2.3060   -4.7260    2.4580 ho        1 MOL      0.347193
    137 H64         4.0030   -5.3840    0.3500 hc        1 MOL      0.026475
    138 H65         2.6060   -6.3040    0.9380 hc        1 MOL      0.026475
    139 H66         2.7310   -5.7570   -0.7190 hc        1 MOL      0.026475
    140 N12         2.9610   -1.9120   -1.5190 n         1 MOL     -0.005143
    141 C43         3.7720   -1.2810   -2.5810 c3        1 MOL     -0.071345
    142 C44         4.1010    0.1730   -2.3620 c         1 MOL      0.672411
    143 O21         4.2040    0.9700   -3.3060 o         1 MOL     -0.605541
    144 C45         5.1110   -2.1020   -2.6570 c3        1 MOL     -0.448180
    145 C46         5.8680   -1.8300   -3.9430 c3        1 MOL      0.236608
    146 C47         6.9780   -2.9010   -4.0440 c3        1 MOL      0.017376
    147 C48         7.9280   -2.5560   -5.2050 c3        1 MOL     -0.001657
    148 N13         9.2950   -3.1470   -4.9990 n4        1 MOL     -0.239902
    149 H67         2.7910   -1.2700   -0.7500 hn        1 MOL     -0.062455
    150 H68         3.2370   -1.3040   -3.5380 h1        1 MOL      0.111438
    151 H69         4.9330   -3.1780   -2.6760 hc        1 MOL      0.147587
    152 H70         5.6970   -1.8530   -1.7750 hc        1 MOL      0.147587
    153 H71         6.2720   -0.8220   -3.9570 hc        1 MOL     -0.031250
    154 H72         5.2150   -1.7730   -4.8130 hc        1 MOL     -0.031250
    155 H73         6.5070   -3.8530   -4.3150 hc        1 MOL      0.019051
    156 H74         7.4290   -2.9490   -3.0570 hc        1 MOL      0.019051
    157 H75         8.0940   -1.4820   -5.2890 hx        1 MOL      0.075027
    158 H76         7.4360   -2.9360   -6.1020 hx        1 MOL      0.075027
    159 H77         9.2060   -4.1100   -4.7110 hn        1 MOL      0.291703
    160 H78         9.8880   -3.1300   -5.8230 hn        1 MOL      0.291703
    161 H79         9.7850   -2.6870   -4.2430 hn        1 MOL      0.291703
    162 N14         4.2610    0.6520   -1.1070 n         1 MOL      0.114859
    163 C49         4.6080    1.9900   -0.6790 c3        1 MOL     -0.652445
    164 C50         6.0960    2.2480   -0.4310 c         1 MOL      0.514197
    165 O22         6.8500    1.4570    0.1050 o         1 MOL     -0.474931
    166 C51         3.7420    2.3230    0.5670 c3        1 MOL      1.008651
    167 C52         3.8310    3.7540    1.1530 c3        1 MOL     -0.689837
    168 C53         3.5030    4.7560    0.0010 c         1 MOL      0.885793
    169 O23         4.4470    5.0120   -0.7720 o         1 MOL     -0.795596
    170 O24         2.4130    5.3210   -0.0870 o         1 MOL     -0.795596
    171 H80         4.3680   -0.0450   -0.3710 hn        1 MOL     -0.006803
    172 H81         4.2270    2.6290   -1.4720 h1        1 MOL      0.076880
    173 H82         3.9720    1.5710    1.3350 hc        1 MOL     -0.229185
    174 H83         2.6740    2.1920    0.4040 hc        1 MOL     -0.229185
    175 H84         4.8670    3.8390    1.4660 hc        1 MOL      0.176548
    176 H85         3.2240    3.8420    2.0510 hc        1 MOL      0.176548
    177 N15         6.5450    3.3150   -1.0970 n         1 MOL     -0.264526
    178 C54         7.9530    3.7820   -1.1530 c3        1 MOL     -0.240776
    179 H86         7.9840    4.8600   -0.9960 h1        1 MOL      0.099346
    180 H87         8.5320    3.2860   -0.3740 h1        1 MOL      0.099346
    181 H88         8.3770    3.5440   -2.1290 h1        1 MOL      0.099346
    182 H89         5.8650    3.9890   -1.4010 hn        1 MOL      0.342169
    183 Ca1         0.1560    5.4880   -1.1050 Ca        1 MOL      1.780767
    184 O25        -1.3350    5.1360   -3.3810 oh        1 MOL     -0.856604
    185 H90        -2.2490    5.0610   -3.6620 ho        1 MOL      0.423731
    186 H91        -0.8410    4.6740   -4.0650 ho        1 MOL      0.423731
    187 O26         1.8900    7.0700   -2.5100 oh        1 MOL     -0.856604
    188 H92         1.7860    7.2410   -3.4500 ho        1 MOL      0.423731
    189 H93         2.8340    7.0550   -2.3700 ho        1 MOL      0.423731
    190 O27        -0.8960    7.9110   -2.0350 oh        1 MOL     -0.856604
    191 H94        -1.1740    7.8250   -2.9540 ho        1 MOL      0.423731
    192 H95        -1.1700    8.7920   -1.7880 ho        1 MOL      0.423731
    193 O28         1.5660    3.9790   -3.0600 oh        1 MOL     -0.856604
    194 H96         2.5030    3.9660   -3.2620 ho        1 MOL      0.423731
    195 H97         1.3650    3.0920   -2.7770 ho        1 MOL      0.423731
    196 O29         0.9010    7.5260    0.6440 oh        1 MOL     -0.856604
    197 H98         1.7040    7.0160    0.5570 ho        1 MOL      0.423731
    198 H99         1.1760    8.4370    0.5260 ho        1 MOL      0.423731
@<TRIPOS>BOND
     1    1    2 1   
     2    1    4 1   
     3    1    5 1   
     4    1    6 1   
     5    2    3 2   
     6    2    7 1   
     7    7    8 1   
     8    7   15 1   
     9    8    9 1   
    10    8   11 1   
    11    8   16 1   
    12    9   10 2   
    13    9   19 1   
    14   11   12 1   
    15   11   17 1   
    16   11   18 1   
    17   12   13 1   
    18   12   14 1   
    19   19   20 1   
    20   19   28 1   
    21   20   21 1   
    22   20   23 1   
    23   20   29 1   
    24   21   22 2   
    25   21   41 1   
    26   23   24 1   
    27   23   30 1   
    28   23   31 1   
    29   24   25 1   
    30   24   32 1   
    31   24   33 1   
    32   25   26 1   
    33   25   34 1   
    34   25   35 1   
    35   26   27 1   
    36   26   36 1   
    37   26   37 1   
    38   27   38 1   
    39   27   39 1   
    40   27   40 1   
    41   41   42 1   
    42   41   49 1   
    43   42   43 1   
    44   42   45 1   
    45   42   50 1   
    46   43   44 2   
    47   43   53 1   
    48   45   46 1   
    49   45   51 1   
    50   45   52 1   
    51   46   47 1   
    52   46   48 1   
    53   53   54 1   
    54   53   57 1   
    55   54   55 1   
    56   54   58 1   
    57   54   59 1   
    58   55   56 2   
    59   55   60 1   
    60   60   61 1   
    61   60   68 1   
    62   61   62 1   
    63   61   64 1   
    64   61   69 1   
    65   62   63 2   
    66   62   72 1   
    67   64   65 1   
    68   64   70 1   
    69   64   71 1   
    70   65   66 1   
    71   65   67 1   
    72   72   73 1   
    73   72   76 1   
    74   73   74 1   
    75   73   77 1   
    76   73   78 1   
    77   74   75 2   
    78   74   79 1   
    79   79   80 1   
    80   79   86 1   
    81   80   81 1   
    82   80   83 1   
    83   80   87 1   
    84   81   82 2   
    85   81   93 1   
    86   83   84 1   
    87   83   85 1   
    88   83   88 1   
    89   84   90 1   
    90   84   91 1   
    91   84   92 1   
    92   85   89 1   
    93   93   94 1   
    94   93  101 1   
    95   94   95 1   
    96   94   97 1   
    97   94  102 1   
    98   95   96 2   
    99   95  112 1   
   100   97   98 1   
   101   97   99 1   
   102   97  103 1   
   103   98  100 1   
   104   98  104 1   
   105   98  105 1   
   106   99  106 1   
   107   99  107 1   
   108   99  108 1   
   109  100  109 1   
   110  100  110 1   
   111  100  111 1   
   112  112  113 1   
   113  112  119 1   
   114  113  114 1   
   115  113  116 1   
   116  113  120 1   
   117  114  115 2   
   118  114  126 1   
   119  116  117 1   
   120  116  118 1   
   121  116  121 1   
   122  117  123 1   
   123  117  124 1   
   124  117  125 1   
   125  118  122 1   
   126  126  127 1   
   127  126  133 1   
   128  127  128 1   
   129  127  130 1   
   130  127  134 1   
   131  128  129 2   
   132  128  140 1   
   133  130  131 1   
   134  130  132 1   
   135  130  135 1   
   136  131  137 1   
   137  131  138 1   
   138  131  139 1   
   139  132  136 1   
   140  140  141 1   
   141  140  149 1   
   142  141  142 1   
   143  141  144 1   
   144  141  150 1   
   145  142  143 2   
   146  142  162 1   
   147  144  145 1   
   148  144  151 1   
   149  144  152 1   
   150  145  146 1   
   151  145  153 1   
   152  145  154 1   
   153  146  147 1   
   154  146  155 1   
   155  146  156 1   
   156  147  148 1   
   157  147  157 1   
   158  147  158 1   
   159  148  159 1   
   160  148  160 1   
   161  148  161 1   
   162  162  163 1   
   163  162  171 1   
   164  163  164 1   
   165  163  166 1   
   166  163  172 1   
   167  164  165 2   
   168  164  177 1   
   169  166  167 1   
   170  166  173 1   
   171  166  174 1   
   172  167  168 1   
   173  167  175 1   
   174  167  176 1   
   175  168  169 1   
   176  168  170 1   
   177  177  178 1   
   178  177  182 1   
   179  178  179 1   
   180  178  180 1   
   181  178  181 1   
   182  184  185 1   
   183  184  186 1   
   184  187  188 1   
   185  187  189 1   
   186  190  191 1   
   187  190  192 1   
   188  193  194 1   
   189  193  195 1   
   190  196  197 1   
   191  196  198 1   
@<TRIPOS>SUBSTRUCTURE
     1 MOL         1 TEMP              0 ****  ****    0 ROOT
