@<TRIPOS>MOLECULE
MOL
  192   187     1     0     0
SMALL
resp


@<TRIPOS>ATOM
      1 C1          9.2620    1.6660    1.5610 c3        1 MOL     -0.598880
      2 C2          8.2630    0.9440    0.6940 c         1 MOL      0.824468
      3 O1          7.1790    0.7420    1.2360 o         1 MOL     -0.759002
      4 H1         10.2450    1.2130    1.4350 hc        1 MOL      0.152181
      5 H2          9.3050    2.7150    1.2690 hc        1 MOL      0.152181
      6 H3          8.9590    1.5900    2.6050 hc        1 MOL      0.152181
      7 N1          8.4930    0.4800   -0.4920 n         1 MOL     -0.552755
      8 C3          7.4470    0.0240   -1.4230 c3        1 MOL      0.141126
      9 C4          7.1630   -1.4700   -1.2660 c         1 MOL      0.435387
     10 O2          7.1740   -2.2530   -2.2230 o         1 MOL     -0.467369
     11 C5          7.8100    0.5580   -2.8340 c3        1 MOL     -0.225900
     12 C6          9.1870    0.3220   -3.3290 c         1 MOL      0.702755
     13 O3          9.4750    0.7830   -4.4680 o         1 MOL     -0.665326
     14 O4          9.9120   -0.4760   -2.7000 o         1 MOL     -0.665326
     15 H4          9.3860    0.6950   -0.9050 hn        1 MOL      0.250508
     16 H5          6.5540    0.5630   -1.1220 h1        1 MOL      0.061964
     17 H6          7.5060    1.6030   -2.9070 hc        1 MOL      0.077516
     18 H7          7.1910   -0.0370   -3.5140 hc        1 MOL      0.077516
     19 N2          6.7760   -1.8620   -0.0480 n         1 MOL     -0.259034
     20 C7          6.3240   -3.2650    0.2410 c3        1 MOL      0.029446
     21 C8          4.8180   -3.5280    0.0260 c         1 MOL      0.555644
     22 O5          4.4870   -4.6690   -0.2660 o         1 MOL     -0.560784
     23 C9          6.7360   -3.6610    1.6100 c3        1 MOL      0.001560
     24 C10         8.2860   -3.5250    1.6610 c3        1 MOL      0.011839
     25 C11         8.7920   -3.7680    3.0730 c3        1 MOL     -0.198134
     26 C12        10.1780   -3.2470    3.0990 c3        1 MOL      0.222216
     27 N3         10.7490   -3.3990    4.4380 n4        1 MOL     -0.289384
     28 H8          6.6980   -1.1790    0.6820 hn        1 MOL      0.263254
     29 H9          6.8230   -4.0110   -0.3750 h1        1 MOL      0.057898
     30 H10         6.5290   -4.6790    1.9250 hc        1 MOL      0.007192
     31 H11         6.2280   -2.9880    2.3070 hc        1 MOL      0.007192
     32 H12         8.5940   -2.5370    1.2990 hc        1 MOL      0.039856
     33 H13         8.8790   -4.2040    1.0400 hc        1 MOL      0.039856
     34 H14         8.8380   -4.8440    3.2360 hc        1 MOL      0.062976
     35 H15         8.2080   -3.2700    3.8370 hc        1 MOL      0.062976
     36 H16        10.1740   -2.1820    2.8550 hx        1 MOL      0.024925
     37 H17        10.7330   -3.7960    2.3530 hx        1 MOL      0.024925
     38 H18        10.3560   -2.7220    5.0700 hn        1 MOL      0.261292
     39 H19        10.5410   -4.2950    4.8570 hn        1 MOL      0.261292
     40 H20        11.7570   -3.3260    4.4120 hn        1 MOL      0.261292
     41 N4          3.9110   -2.5940    0.2170 n         1 MOL     -0.456842
     42 C13         4.0250   -1.4680    1.0660 c3        1 MOL      0.176146
     43 C14         4.0020   -0.2160    0.1580 c         1 MOL      0.000630
     44 O6          4.0630   -0.2860   -1.1050 o         1 MOL     -0.432277
     45 C15         2.9020   -1.5290    2.0490 c3        1 MOL     -0.138073
     46 C16         1.5370   -1.8270    1.4690 c         1 MOL      0.690588
     47 O7          1.0640   -1.0810    0.6270 o         1 MOL     -0.686020
     48 O8          0.9620   -2.8440    1.7870 o         1 MOL     -0.686020
     49 H21         2.9890   -2.8580   -0.0880 hn        1 MOL      0.367626
     50 H22         4.9420   -1.4840    1.6620 h1        1 MOL      0.085107
     51 H23         2.7800   -0.5540    2.5200 hc        1 MOL     -0.008348
     52 H24         3.1140   -2.2690    2.8260 hc        1 MOL     -0.008348
     53 N5          3.9100    0.8850    0.8280 n         1 MOL     -0.053192
     54 C17         4.0280    2.2090    0.2150 c3        1 MOL      0.060827
     55 C18         2.7790    2.5180   -0.6340 c         1 MOL      0.091419
     56 O9          1.7870    1.7710   -0.5900 o         1 MOL     -0.164030
     57 H25         4.0180    0.7860    1.8260 hn        1 MOL      0.225556
     58 H26         4.9660    2.4920   -0.2610 h1        1 MOL      0.073626
     59 H27         4.0710    2.9660    0.9980 h1        1 MOL      0.073626
     60 N6          2.8210    3.5650   -1.4690 n         1 MOL     -0.287165
     61 C19         1.7780    4.0690   -2.3670 c3        1 MOL      0.161343
     62 C20         2.0120    5.5880   -2.6620 c         1 MOL      0.470448
     63 O10         3.1040    6.0950   -2.6040 o         1 MOL     -0.524663
     64 C21         1.6320    3.2840   -3.7000 c3        1 MOL     -0.201209
     65 C22         0.9350    1.9790   -3.4800 c         1 MOL      0.643479
     66 O11        -0.2230    1.8600   -2.9460 o         1 MOL     -0.673722
     67 O12         1.4950    0.9670   -4.0120 o         1 MOL     -0.673722
     68 H28         3.7090    4.0500   -1.4860 hn        1 MOL      0.257322
     69 H29         0.8240    4.0260   -1.8500 h1        1 MOL     -0.004218
     70 H30         2.6660    3.1090   -4.0040 hc        1 MOL      0.078750
     71 H31         1.1550    3.9290   -4.4350 hc        1 MOL      0.078750
     72 N7          0.9650    6.3940   -2.8960 n         1 MOL     -0.447339
     73 C23        -0.4430    5.9740   -2.9350 c3        1 MOL      0.073558
     74 C24        -1.0860    6.0540   -1.5380 c         1 MOL      0.541906
     75 O13        -0.6300    6.8750   -0.7400 o         1 MOL     -0.514876
     76 H32         1.1790    7.2970   -3.2800 hn        1 MOL      0.323617
     77 H33        -0.6190    4.9490   -3.2680 h1        1 MOL      0.029758
     78 H34        -0.9400    6.6300   -3.6500 h1        1 MOL      0.029758
     79 N8         -2.0920    5.2480   -1.1390 n         1 MOL     -0.580854
     80 C25        -2.4270    5.0270    0.2710 c3        1 MOL      0.087238
     81 C26        -1.7500    3.7070    0.7620 c         1 MOL      0.773409
     82 O14        -1.3190    2.8780   -0.0520 o         1 MOL     -0.621881
     83 C27        -3.9110    4.9870    0.4720 c3        1 MOL      0.246116
     84 C28        -4.8070    4.1530   -0.5140 c3        1 MOL     -0.335664
     85 O15        -4.4390    6.3170    0.3730 oh        1 MOL     -0.609832
     86 H35        -2.3660    4.5430   -1.8140 hn        1 MOL      0.308542
     87 H36        -2.0130    5.8260    0.8830 h1        1 MOL      0.068440
     88 H37        -4.0900    4.7500    1.5170 h1        1 MOL      0.041557
     89 H38        -4.1420    6.6650   -0.4730 ho        1 MOL      0.389806
     90 H39        -4.8730    4.5470   -1.5230 hc        1 MOL      0.101413
     91 H40        -4.4400    3.1310   -0.4910 hc        1 MOL      0.101413
     92 H41        -5.8150    4.2060   -0.1040 hc        1 MOL      0.101413
     93 N9         -1.6100    3.6400    2.1010 n         1 MOL     -0.675389
     94 C29        -1.0570    2.4330    2.8640 c3        1 MOL      0.048734
     95 C30        -1.7310    1.1110    2.6460 c         1 MOL      0.386894
     96 O16        -1.5680    0.4580    1.5710 o         1 MOL     -0.417342
     97 C31         0.4790    2.3370    2.6940 c3        1 MOL      0.325812
     98 C32         1.1720    3.7190    2.7000 c3        1 MOL     -0.156334
     99 C33         1.1760    1.3930    3.6570 c3        1 MOL     -0.354320
    100 C34         1.0880    4.4050    4.0910 c3        1 MOL     -0.466100
    101 H42        -2.0530    4.3050    2.7150 hn        1 MOL      0.335970
    102 H43        -1.2710    2.5830    3.9220 h1        1 MOL      0.057208
    103 H44         0.6410    1.8700    1.7220 hc        1 MOL     -0.268506
    104 H45         0.8300    4.4450    1.9720 hc        1 MOL      0.105177
    105 H46         2.2060    3.4400    2.4930 hc        1 MOL      0.105177
    106 H47         0.6300    0.4640    3.5350 hc        1 MOL      0.089092
    107 H48         2.2460    1.3280    3.4910 hc        1 MOL      0.089092
    108 H49         0.9770    1.7220    4.6760 hc        1 MOL      0.089092
    109 H50         1.5900    5.3650    3.9360 hc        1 MOL      0.130112
    110 H51         0.0610    4.5730    4.3780 hc        1 MOL      0.130112
    111 H52         1.7220    3.9200    4.8390 hc        1 MOL      0.130112
    112 N10        -2.3340    0.5450    3.6780 n         1 MOL     -0.291576
    113 C35        -2.8690   -0.8120    3.7480 c3        1 MOL     -0.194166
    114 C36        -4.2180   -1.0480    3.0470 c         1 MOL      0.377004
    115 O17        -4.7410   -2.1810    2.8620 o         1 MOL     -0.508803
    116 C37        -2.9760   -1.2730    5.1920 c3        1 MOL      0.649821
    117 C38        -4.0880   -0.6130    6.0340 c3        1 MOL     -0.331620
    118 O18        -1.7410   -1.2570    5.9110 oh        1 MOL     -0.671602
    119 H53        -2.2930    1.0470    4.5560 hn        1 MOL      0.244658
    120 H54        -2.2260   -1.5330    3.2360 h1        1 MOL      0.079883
    121 H55        -3.2220   -2.3340    5.1550 h1        1 MOL     -0.047778
    122 H56        -1.0850   -1.6460    5.3260 ho        1 MOL      0.398196
    123 H57        -3.8510    0.4560    6.0050 hc        1 MOL      0.080887
    124 H58        -5.0210   -0.8390    5.5230 hc        1 MOL      0.080887
    125 H59        -4.1390   -1.0260    7.0420 hc        1 MOL      0.080887
    126 N11        -4.9160    0.0870    2.7340 n         1 MOL     -0.069490
    127 C39        -6.2780    0.0530    2.0550 c3        1 MOL     -0.427895
    128 C40        -6.2190   -0.6530    0.6830 c         1 MOL      0.781054
    129 O19        -5.6240    0.0130   -0.2150 o         1 MOL     -0.566915
    130 C41        -6.8190    1.4460    1.8910 c3        1 MOL      0.490138
    131 C42        -8.2240    1.5410    1.2490 c3        1 MOL     -0.497356
    132 O20        -6.9930    2.1130    3.1430 oh        1 MOL     -0.567124
    133 H60        -4.5340    0.9590    3.0810 hn        1 MOL      0.134754
    134 H61        -6.9720   -0.5010    2.6780 h1        1 MOL      0.116670
    135 H62        -6.1590    2.0220    1.2320 h1        1 MOL     -0.048487
    136 H63        -6.0810    2.1940    3.4320 ho        1 MOL      0.345162
    137 H64        -8.9170    0.9740    1.8660 hc        1 MOL      0.143906
    138 H65        -8.4870    2.5990    1.1900 hc        1 MOL      0.143906
    139 H66        -8.3210    1.1130    0.2580 hc        1 MOL      0.143906
    140 N12        -6.6940   -1.9010    0.6110 n         1 MOL     -0.558403
    141 C43        -6.6840   -2.6830   -0.6500 c3        1 MOL      0.116777
    142 C44        -5.3700   -2.7450   -1.4270 c         1 MOL      0.620658
    143 O21        -5.3350   -2.2770   -2.5810 o         1 MOL     -0.562363
    144 C45        -7.9100   -2.2830   -1.5360 c3        1 MOL     -0.436350
    145 C46        -9.2010   -2.1590   -0.7830 c3        1 MOL      0.114345
    146 C47       -10.4030   -1.9980   -1.7890 c3        1 MOL      0.167491
    147 C48       -11.6240   -1.7700   -0.9620 c3        1 MOL     -0.002528
    148 N13       -12.8510   -1.5550   -1.7310 n4        1 MOL     -0.132774
    149 H67        -6.9550   -2.3270    1.4910 hn        1 MOL      0.337987
    150 H68        -6.8170   -3.7220   -0.3750 h1        1 MOL      0.081550
    151 H69        -8.0090   -2.9810   -2.3660 hc        1 MOL      0.134899
    152 H70        -7.7430   -1.2660   -1.9040 hc        1 MOL      0.134899
    153 H71        -9.1110   -1.3310   -0.0890 hc        1 MOL     -0.016650
    154 H72        -9.3260   -3.0900   -0.2300 hc        1 MOL     -0.016650
    155 H73       -10.4250   -2.8190   -2.5010 hc        1 MOL     -0.005493
    156 H74       -10.1040   -1.1070   -2.3390 hc        1 MOL     -0.005493
    157 H75       -11.4060   -0.9780   -0.2630 hx        1 MOL      0.040503
    158 H76       -11.7840   -2.6900   -0.4050 hx        1 MOL      0.040503
    159 H77       -13.0420   -2.1600   -2.5110 hn        1 MOL      0.193910
    160 H78       -13.6460   -1.7300   -1.1240 hn        1 MOL      0.193910
    161 H79       -12.9380   -0.5780   -1.9560 hn        1 MOL      0.193910
    162 N14        -4.4060   -3.4780   -0.9920 n         1 MOL     -0.600194
    163 C49        -3.0070   -3.3550   -1.6130 c3        1 MOL      0.465951
    164 C50        -2.0270   -2.8450   -0.5820 c         1 MOL      0.208078
    165 O22        -1.5770   -1.7200   -0.8240 o         1 MOL     -0.519340
    166 C51        -2.4880   -4.6050   -2.2490 c3        1 MOL     -0.097730
    167 C52        -3.2690   -4.8440   -3.5950 c3        1 MOL     -0.170838
    168 C53        -3.1030   -6.2260   -4.1460 c         1 MOL      0.630824
    169 O23        -3.9100   -7.1900   -3.8040 o         1 MOL     -0.621513
    170 O24        -2.1120   -6.3460   -4.9350 o         1 MOL     -0.621513
    171 H80        -4.5820   -4.0890   -0.1990 hn        1 MOL      0.291361
    172 H81        -2.9960   -2.5680   -2.3630 h1        1 MOL      0.062457
    173 H82        -2.7620   -5.4250   -1.5970 hc        1 MOL      0.070033
    174 H83        -1.4040   -4.5890   -2.4160 hc        1 MOL      0.070033
    175 H84        -2.9600   -4.0650   -4.2840 hc        1 MOL      0.039102
    176 H85        -4.3410   -4.7020   -3.4240 hc        1 MOL      0.039102
    177 N15        -1.7470   -3.4510    0.5610 n         1 MOL     -0.216450
    178 C54        -2.0190   -4.8570    0.8760 c3        1 MOL     -0.108083
    179 H86        -2.0590   -4.9840    1.9580 h1        1 MOL      0.055187
    180 H87        -2.9750   -5.1490    0.4410 h1        1 MOL      0.055187
    181 H88        -1.2260   -5.4820    0.4660 h1        1 MOL      0.055187
    182 H89        -1.2000   -2.9590    1.2580 hn        1 MOL      0.328439
    183 Ca1        -0.4140    0.4110   -0.8270 Ca        1 MOL      1.705753
    184 O25        -3.0680    0.8630   -1.1130 oh        1 MOL     -0.905405
    185 H90        -3.2320    1.1520   -2.0110 ho        1 MOL      0.430106
    186 H91        -3.9170    0.5830   -0.7820 ho        1 MOL      0.430106
    187 O26        -1.3840   -0.6470   -3.4760 oh        1 MOL     -0.905405
    188 H92        -1.1820    0.0930   -4.0610 ho        1 MOL      0.430106
    189 H93        -0.9950   -1.4020   -3.9070 ho        1 MOL      0.430106
    190 O27         1.5680   -0.8670   -2.2310 oh        1 MOL     -0.905405
    191 H94         2.4670   -0.7930   -1.8990 ho        1 MOL      0.430106
    192 H95         1.5770   -0.3850   -3.0510 ho        1 MOL      0.430106
@<TRIPOS>BOND
     1    1    2 1   
     2    1    4 1   
     3    1    5 1   
     4    1    6 1   
     5    2    3 2   
     6    2    7 1   
     7    7    8 1   
     8    7   15 1   
     9    8    9 1   
    10    8   11 1   
    11    8   16 1   
    12    9   10 2   
    13    9   19 1   
    14   11   12 1   
    15   11   17 1   
    16   11   18 1   
    17   12   13 1   
    18   12   14 1   
    19   19   20 1   
    20   19   28 1   
    21   20   21 1   
    22   20   23 1   
    23   20   29 1   
    24   21   22 2   
    25   21   41 1   
    26   23   24 1   
    27   23   30 1   
    28   23   31 1   
    29   24   25 1   
    30   24   32 1   
    31   24   33 1   
    32   25   26 1   
    33   25   34 1   
    34   25   35 1   
    35   26   27 1   
    36   26   36 1   
    37   26   37 1   
    38   27   38 1   
    39   27   39 1   
    40   27   40 1   
    41   41   42 1   
    42   41   49 1   
    43   42   43 1   
    44   42   45 1   
    45   42   50 1   
    46   43   44 2   
    47   43   53 1   
    48   45   46 1   
    49   45   51 1   
    50   45   52 1   
    51   46   47 1   
    52   46   48 1   
    53   53   54 1   
    54   53   57 1   
    55   54   55 1   
    56   54   58 1   
    57   54   59 1   
    58   55   56 2   
    59   55   60 1   
    60   60   61 1   
    61   60   68 1   
    62   61   62 1   
    63   61   64 1   
    64   61   69 1   
    65   62   63 2   
    66   62   72 1   
    67   64   65 1   
    68   64   70 1   
    69   64   71 1   
    70   65   66 1   
    71   65   67 1   
    72   72   73 1   
    73   72   76 1   
    74   73   74 1   
    75   73   77 1   
    76   73   78 1   
    77   74   75 2   
    78   74   79 1   
    79   79   80 1   
    80   79   86 1   
    81   80   81 1   
    82   80   83 1   
    83   80   87 1   
    84   81   82 2   
    85   81   93 1   
    86   83   84 1   
    87   83   85 1   
    88   83   88 1   
    89   84   90 1   
    90   84   91 1   
    91   84   92 1   
    92   85   89 1   
    93   93   94 1   
    94   93  101 1   
    95   94   95 1   
    96   94   97 1   
    97   94  102 1   
    98   95   96 2   
    99   95  112 1   
   100   97   98 1   
   101   97   99 1   
   102   97  103 1   
   103   98  100 1   
   104   98  104 1   
   105   98  105 1   
   106   99  106 1   
   107   99  107 1   
   108   99  108 1   
   109  100  109 1   
   110  100  110 1   
   111  100  111 1   
   112  112  113 1   
   113  112  119 1   
   114  113  114 1   
   115  113  116 1   
   116  113  120 1   
   117  114  115 2   
   118  114  126 1   
   119  116  117 1   
   120  116  118 1   
   121  116  121 1   
   122  117  123 1   
   123  117  124 1   
   124  117  125 1   
   125  118  122 1   
   126  126  127 1   
   127  126  133 1   
   128  127  128 1   
   129  127  130 1   
   130  127  134 1   
   131  128  129 2   
   132  128  140 1   
   133  130  131 1   
   134  130  132 1   
   135  130  135 1   
   136  131  137 1   
   137  131  138 1   
   138  131  139 1   
   139  132  136 1   
   140  140  141 1   
   141  140  149 1   
   142  141  142 1   
   143  141  144 1   
   144  141  150 1   
   145  142  143 2   
   146  142  162 1   
   147  144  145 1   
   148  144  151 1   
   149  144  152 1   
   150  145  146 1   
   151  145  153 1   
   152  145  154 1   
   153  146  147 1   
   154  146  155 1   
   155  146  156 1   
   156  147  148 1   
   157  147  157 1   
   158  147  158 1   
   159  148  159 1   
   160  148  160 1   
   161  148  161 1   
   162  162  163 1   
   163  162  171 1   
   164  163  164 1   
   165  163  166 1   
   166  163  172 1   
   167  164  165 2   
   168  164  177 1   
   169  166  167 1   
   170  166  173 1   
   171  166  174 1   
   172  167  168 1   
   173  167  175 1   
   174  167  176 1   
   175  168  169 1   
   176  168  170 1   
   177  177  178 1   
   178  177  182 1   
   179  178  179 1   
   180  178  180 1   
   181  178  181 1   
   182  184  185 1   
   183  184  186 1   
   184  187  188 1   
   185  187  189 1   
   186  190  191 1   
   187  190  192 1   
@<TRIPOS>SUBSTRUCTURE
     1 MOL         1 TEMP              0 ****  ****    0 ROOT
