@<TRIPOS>MOLECULE
MOL
  181   177     1     0     0
SMALL
resp


@<TRIPOS>ATOM
      1 C1          2.1430   -1.2690    5.1680 c3        1 MOL     -0.421286
      2 C2          2.8950   -0.1890    4.4140 c         1 MOL      0.694053
      3 O1          2.4050    0.7570    3.8410 o         1 MOL     -0.597205
      4 H1          1.0760   -1.0420    5.1610 hc        1 MOL      0.105033
      5 H2          2.3110   -2.2330    4.6880 hc        1 MOL      0.105033
      6 H3          2.4990   -1.3090    6.1980 hc        1 MOL      0.105033
      7 N1          4.2170   -0.3760    4.4970 n         1 MOL     -0.555941
      8 C3          5.1530    0.5520    3.9650 c3        1 MOL      0.213835
      9 C4          5.8160    0.0980    2.7150 c         1 MOL      0.594497
     10 O2          6.3400    0.9610    2.0570 o         1 MOL     -0.592772
     11 C5          6.3080    0.8250    4.9360 c3        1 MOL     -0.234689
     12 C6          6.9890   -0.3340    5.6850 c         1 MOL      0.740450
     13 O3          8.1070   -0.1920    6.2020 o         1 MOL     -0.721826
     14 O4          6.3820   -1.4080    5.7250 o         1 MOL     -0.721826
     15 H4          4.6020   -1.0970    5.1000 hn        1 MOL      0.290225
     16 H5          4.7340    1.5230    3.6810 h1        1 MOL      0.047163
     17 H6          5.8460    1.4620    5.7040 hc        1 MOL      0.018259
     18 H7          6.9620    1.5600    4.4640 hc        1 MOL      0.018259
     19 N2          5.6870   -1.2050    2.3210 n         1 MOL     -0.483541
     20 C7          6.0560   -1.7440    0.9940 c3        1 MOL      0.216011
     21 C8          5.5130   -0.8510   -0.1180 c         1 MOL      0.397361
     22 O5          4.3410   -0.9680   -0.4520 o         1 MOL     -0.562715
     23 C9          7.5570   -2.1920    1.0270 c3        1 MOL     -0.302310
     24 H8          5.1370   -1.8120    2.9200 hn        1 MOL      0.287999
     25 H9          5.4690   -2.6540    0.8370 h1        1 MOL      0.058510
     26 H10         7.8820   -2.8830    1.8020 hc        1 MOL      0.080391
     27 H11         7.7530   -2.4930   -0.0060 hc        1 MOL      0.080391
     28 H12         8.1430   -1.2720    1.1200 hc        1 MOL      0.080391
     29 N3          6.3420    0.0360   -0.7050 n         1 MOL     -0.058048
     30 C10         6.1290    0.6430   -1.9500 c3        1 MOL     -0.221977
     31 C11         5.6100    2.0900   -1.6820 c         1 MOL      0.421485
     32 O6          5.3820    2.9000   -2.6290 o         1 MOL     -0.555448
     33 C12         7.4510    0.6630   -2.7780 c3        1 MOL     -0.230396
     34 C13         7.9940   -0.7530   -3.0120 c         1 MOL      0.661893
     35 O7          9.1830   -0.9880   -2.8530 o         1 MOL     -0.684123
     36 O8          7.1970   -1.6550   -3.3620 o         1 MOL     -0.684123
     37 H13         7.3080    0.0830   -0.4200 hn        1 MOL      0.220234
     38 H14         5.3940    0.1640   -2.6070 h1        1 MOL      0.136544
     39 H15         8.2380    1.1970   -2.2450 hc        1 MOL      0.063323
     40 H16         7.2850    1.3160   -3.6360 hc        1 MOL      0.063323
     41 N4          5.3370    2.3900   -0.4300 n         1 MOL     -0.068585
     42 C14         4.7740    3.5930    0.1770 c3        1 MOL     -0.113785
     43 C15         3.4970    4.0910   -0.5930 c         1 MOL      0.569896
     44 O9          3.4540    5.3010   -0.8130 o         1 MOL     -0.524204
     45 H17         5.7090    1.6620    0.1600 hn        1 MOL      0.097600
     46 H18         5.5110    4.3930    0.2260 h1        1 MOL      0.075129
     47 H19         4.5130    3.1970    1.1560 h1        1 MOL      0.075129
     48 N5          2.5670    3.1660   -1.0280 n         1 MOL     -0.506107
     49 C16         1.5860    3.5040   -2.0730 c3        1 MOL      0.053974
     50 C17         0.5310    4.5730   -1.6120 c         1 MOL      0.520848
     51 O10         0.3300    4.7870   -0.4080 o         1 MOL     -0.477260
     52 C18         1.0180    2.1690   -2.6150 c3        1 MOL     -0.325625
     53 C19         1.9680    1.2970   -3.3390 c         1 MOL      0.761851
     54 N6          2.1430    1.6560   -4.5860 n         1 MOL     -0.732658
     55 O11         2.5130    0.2640   -2.8580 o         1 MOL     -0.634874
     56 H20         2.7100    2.2250   -0.6960 hn        1 MOL      0.330556
     57 H21         2.1560    3.9650   -2.8890 h1        1 MOL      0.048682
     58 H22         0.2500    2.3380   -3.3660 hc        1 MOL      0.104412
     59 H23         0.5270    1.6570   -1.7850 hc        1 MOL      0.104412
     60 H24         1.5500    2.3220   -5.0680 hn        1 MOL      0.342317
     61 H25         2.8460    1.1470   -5.1040 hn        1 MOL      0.342317
     62 N7         -0.0190    5.2290   -2.6150 n         1 MOL     -0.365226
     63 C20        -0.8810    6.3910   -2.4300 c3        1 MOL     -0.245214
     64 C21        -2.3340    5.9930   -2.0070 c         1 MOL      0.469883
     65 O12        -3.0010    5.1180   -2.6110 o         1 MOL     -0.483638
     66 H26         0.1960    4.9710   -3.5710 hn        1 MOL      0.301964
     67 H27        -0.8850    6.9340   -3.3770 h1        1 MOL      0.131252
     68 H28        -0.5430    7.0810   -1.6530 h1        1 MOL      0.131252
     69 N8         -2.8300    6.7160   -0.9880 n         1 MOL     -0.211655
     70 C22        -4.2030    6.6530   -0.5020 c3        1 MOL     -0.568874
     71 C23        -4.5870    5.3930    0.3500 c         1 MOL      0.555584
     72 O13        -5.7280    5.1420    0.6520 o         1 MOL     -0.561817
     73 C24        -4.6010    7.8730    0.3840 c3        1 MOL      0.572247
     74 C25        -3.7340    8.0950    1.5630 c3        1 MOL     -0.376745
     75 O14        -4.4460    9.0420   -0.4100 oh        1 MOL     -0.649141
     76 H29        -2.2340    7.4370   -0.6170 hn        1 MOL      0.225968
     77 H30        -4.8490    6.5860   -1.3830 h1        1 MOL      0.228376
     78 H31        -5.6650    7.9350    0.6320 h1        1 MOL      0.050304
     79 H32        -3.5000    9.1610   -0.5450 ho        1 MOL      0.363260
     80 H33        -4.0150    9.0850    1.9230 hc        1 MOL      0.085966
     81 H34        -4.0630    7.2990    2.2390 hc        1 MOL      0.085966
     82 H35        -2.6680    7.9290    1.4150 hc        1 MOL      0.085966
     83 N9         -3.5970    4.6310    0.8110 n         1 MOL     -0.035605
     84 C26        -3.6370    3.2090    1.1820 c3        1 MOL     -0.343896
     85 C27        -3.0490    2.2130    0.0680 c         1 MOL      0.611767
     86 O15        -2.6010    2.6710   -0.9570 o         1 MOL     -0.441597
     87 C28        -3.0970    2.8500    2.5470 c3        1 MOL      0.045701
     88 C29        -1.5770    3.2250    2.6930 c3        1 MOL      0.004030
     89 C30        -3.9700    3.4510    3.6880 c3        1 MOL     -0.273379
     90 C31        -0.8790    2.5950    3.9280 c3        1 MOL     -0.393667
     91 H36        -2.6620    5.0150    0.7600 hn        1 MOL      0.141114
     92 H37        -4.6990    2.9720    1.1670 h1        1 MOL      0.208855
     93 H38        -3.2020    1.7690    2.6260 hc        1 MOL      0.056533
     94 H39        -1.4170    4.3030    2.7120 hc        1 MOL      0.077883
     95 H40        -1.0990    2.8730    1.7800 hc        1 MOL      0.077883
     96 H41        -3.5130    3.2490    4.6580 hc        1 MOL      0.060747
     97 H42        -4.1510    4.5120    3.4870 hc        1 MOL      0.060747
     98 H43        -4.9780    3.0690    3.5400 hc        1 MOL      0.060747
     99 H44        -1.2340    1.5680    4.0770 hc        1 MOL      0.112209
    100 H45         0.1690    2.4900    3.6450 hc        1 MOL      0.112209
    101 H46        -1.1060    3.2460    4.7660 hc        1 MOL      0.112209
    102 N10        -3.1040    0.8790    0.3310 n         1 MOL     -0.740518
    103 C32        -2.4170   -0.1090   -0.4820 c3        1 MOL      0.067524
    104 C33        -3.2420   -1.3770   -0.7490 c         1 MOL      0.471066
    105 O16        -2.8180   -2.5510   -0.5790 o         1 MOL     -0.461008
    106 C34        -1.0200   -0.3600    0.2600 c3        1 MOL      0.071850
    107 C35         0.1130   -0.9650   -0.6190 c         1 MOL      0.506593
    108 O17         1.1540   -1.3030   -0.0580 o         1 MOL     -0.696001
    109 O18         0.0350   -1.2310   -1.8590 o         1 MOL     -0.696001
    110 H47        -3.5050    0.4420    1.1530 hn        1 MOL      0.366218
    111 H48        -2.0440    0.3560   -1.3970 h1        1 MOL      0.025871
    112 H49        -1.1280   -0.9900    1.1540 hc        1 MOL      0.056811
    113 H50        -0.7470    0.5960    0.7140 hc        1 MOL      0.056811
    114 N11        -4.5060   -1.1680   -1.0760 n         1 MOL     -0.364286
    115 C36        -5.5370   -2.1180   -1.6380 c3        1 MOL      0.267463
    116 C37        -5.5450   -3.4120   -0.8370 c         1 MOL      0.218857
    117 O19        -5.6960   -3.3190    0.4170 o         1 MOL     -0.442457
    118 C38        -6.9210   -1.3730   -1.5310 c3        1 MOL     -0.402987
    119 C39        -7.2500   -0.5520   -0.2950 ca        1 MOL      0.204817
    120 C40        -8.2270   -1.0840    0.5710 ca        1 MOL     -0.205674
    121 C41        -6.8090    0.8060   -0.2220 ca        1 MOL     -0.205674
    122 C42        -8.7340   -0.1980    1.5530 ca        1 MOL     -0.077321
    123 C43        -7.2690    1.5670    0.8440 ca        1 MOL     -0.077321
    124 C44        -8.2010    1.0610    1.7570 ca        1 MOL     -0.154202
    125 H51        -4.6920   -0.2080   -1.3330 hn        1 MOL      0.278378
    126 H52        -5.2320   -2.3330   -2.6580 h1        1 MOL     -0.015408
    127 H53        -7.7140   -2.1040   -1.7000 hc        1 MOL      0.110052
    128 H54        -6.9460   -0.6480   -2.3390 hc        1 MOL      0.110052
    129 H55        -8.5470   -2.1110    0.4960 ha        1 MOL      0.147158
    130 H56        -6.2490    1.2100   -1.0570 ha        1 MOL      0.147158
    131 H57        -9.5190   -0.5630    2.1910 ha        1 MOL      0.096474
    132 H58        -6.9320    2.5890    0.8910 ha        1 MOL      0.096474
    133 H59        -8.3950    1.6480    2.6440 ha        1 MOL      0.121869
    134 N12        -5.5220   -4.6080   -1.4460 n         1 MOL     -0.029599
    135 C45        -5.4790   -5.9070   -0.7340 c3        1 MOL      0.117351
    136 C46        -4.4900   -6.0010    0.4180 c         1 MOL      0.257807
    137 O20        -4.6830   -6.8200    1.3200 o         1 MOL     -0.508372
    138 C47        -4.9460   -6.8510   -1.9000 c3        1 MOL     -0.124137
    139 C48        -5.4850   -6.2760   -3.2080 c3        1 MOL     -0.082017
    140 C49        -5.5400   -4.7900   -2.9810 c3        1 MOL     -0.050985
    141 H60        -6.4490   -6.1630   -0.2940 h1        1 MOL      0.042548
    142 H61        -3.8670   -6.9780   -1.9780 hc        1 MOL      0.073079
    143 H62        -5.3130   -7.8620   -1.7040 hc        1 MOL      0.073079
    144 H63        -4.8740   -6.4840   -4.0880 hc        1 MOL      0.043740
    145 H64        -6.5060   -6.5600   -3.4860 hc        1 MOL      0.043740
    146 H65        -4.6620   -4.2430   -3.3350 h1        1 MOL      0.069835
    147 H66        -6.5010   -4.3370   -3.2380 h1        1 MOL      0.069835
    148 N13        -3.4240   -5.1640    0.4360 n         1 MOL     -0.059010
    149 C50        -2.4140   -5.2020    1.5670 c3        1 MOL     -0.379188
    150 C51        -3.0050   -4.5190    2.8580 c         1 MOL      0.468604
    151 O21        -2.4040   -4.4960    3.9230 o         1 MOL     -0.531884
    152 C52        -1.0460   -4.6700    1.0740 c3        1 MOL      0.255152
    153 C53        -0.3370   -5.5420    0.0600 c3        1 MOL     -0.123072
    154 C54         1.0700   -4.9860   -0.4090 c         1 MOL      0.665224
    155 O22         2.0820   -5.1260    0.3790 o         1 MOL     -0.708088
    156 O23         1.2750   -4.4700   -1.5210 o         1 MOL     -0.708088
    157 H67        -3.3550   -4.4250   -0.2460 hn        1 MOL      0.145990
    158 H68        -2.2410   -6.2160    1.9110 h1        1 MOL      0.185390
    159 H69        -0.3920   -4.5980    1.9450 hc        1 MOL      0.002810
    160 H70        -1.2100   -3.7120    0.5910 hc        1 MOL      0.002810
    161 H71        -0.9810   -5.6750   -0.8160 hc        1 MOL     -0.003568
    162 H72        -0.2280   -6.5410    0.4700 hc        1 MOL     -0.003568
    163 N14        -4.1200   -3.7580    2.7350 n         1 MOL     -0.099747
    164 C55        -4.8190   -3.0070    3.7790 c3        1 MOL     -0.260416
    165 H73        -5.7120   -3.5530    4.0820 h1        1 MOL      0.095328
    166 H74        -4.1610   -2.8810    4.6390 h1        1 MOL      0.095328
    167 H75        -5.1050   -2.0290    3.3940 h1        1 MOL      0.095328
    168 H76        -4.4560   -3.5060    1.8150 hn        1 MOL      0.150889
    169 Ca1         2.5590   -2.2570   -2.1620 Ca        1 MOL      1.803072
    170 O24         4.1110   -4.0420   -0.7250 oh        1 MOL     -0.823958
    171 H77         3.3770   -4.5530   -0.4070 ho        1 MOL      0.391541
    172 H78         4.8650   -4.6200   -0.6340 ho        1 MOL      0.391541
    173 O25         1.3060   -1.9810   -4.6600 oh        1 MOL     -0.823958
    174 H79         1.5340   -1.8110   -5.5720 ho        1 MOL      0.391541
    175 H80         0.3810   -1.7620   -4.6000 ho        1 MOL      0.391541
    176 O26         4.4730   -1.6190   -3.8120 oh        1 MOL     -0.823958
    177 H81         5.4230   -1.6990   -3.7520 ho        1 MOL      0.391541
    178 H82         4.3090   -1.3990   -4.7250 ho        1 MOL      0.391541
    179 O27         3.3070   -4.3210   -3.7450 oh        1 MOL     -0.823958
    180 H83         2.6660   -5.0130   -3.8850 ho        1 MOL      0.391541
    181 H84         4.1060   -4.6470   -4.1610 ho        1 MOL      0.391541
@<TRIPOS>BOND
     1    1    2 1   
     2    1    4 1   
     3    1    5 1   
     4    1    6 1   
     5    2    3 2   
     6    2    7 1   
     7    7    8 1   
     8    7   15 1   
     9    8    9 1   
    10    8   11 1   
    11    8   16 1   
    12    9   10 2   
    13    9   19 1   
    14   11   12 1   
    15   11   17 1   
    16   11   18 1   
    17   12   13 1   
    18   12   14 1   
    19   19   20 1   
    20   19   24 1   
    21   20   21 1   
    22   20   23 1   
    23   20   25 1   
    24   21   22 2   
    25   21   29 1   
    26   23   26 1   
    27   23   27 1   
    28   23   28 1   
    29   29   30 1   
    30   29   37 1   
    31   30   31 1   
    32   30   33 1   
    33   30   38 1   
    34   31   32 2   
    35   31   41 1   
    36   33   34 1   
    37   33   39 1   
    38   33   40 1   
    39   34   35 1   
    40   34   36 1   
    41   41   42 1   
    42   41   45 1   
    43   42   43 1   
    44   42   46 1   
    45   42   47 1   
    46   43   44 2   
    47   43   48 1   
    48   48   49 1   
    49   48   56 1   
    50   49   50 1   
    51   49   52 1   
    52   49   57 1   
    53   50   51 2   
    54   50   62 1   
    55   52   53 1   
    56   52   58 1   
    57   52   59 1   
    58   53   54 1   
    59   53   55 2   
    60   54   60 1   
    61   54   61 1   
    62   62   63 1   
    63   62   66 1   
    64   63   64 1   
    65   63   67 1   
    66   63   68 1   
    67   64   65 2   
    68   64   69 1   
    69   69   70 1   
    70   69   76 1   
    71   70   71 1   
    72   70   73 1   
    73   70   77 1   
    74   71   72 2   
    75   71   83 1   
    76   73   74 1   
    77   73   75 1   
    78   73   78 1   
    79   74   80 1   
    80   74   81 1   
    81   74   82 1   
    82   75   79 1   
    83   83   84 1   
    84   83   91 1   
    85   84   85 1   
    86   84   87 1   
    87   84   92 1   
    88   85   86 2   
    89   85  102 1   
    90   87   88 1   
    91   87   89 1   
    92   87   93 1   
    93   88   90 1   
    94   88   94 1   
    95   88   95 1   
    96   89   96 1   
    97   89   97 1   
    98   89   98 1   
    99   90   99 1   
   100   90  100 1   
   101   90  101 1   
   102  102  103 1   
   103  102  110 1   
   104  103  104 1   
   105  103  106 1   
   106  103  111 1   
   107  104  105 2   
   108  104  114 1   
   109  106  107 1   
   110  106  112 1   
   111  106  113 1   
   112  107  108 1   
   113  107  109 1   
   114  114  115 1   
   115  114  125 1   
   116  115  116 1   
   117  115  118 1   
   118  115  126 1   
   119  116  117 2   
   120  116  134 1   
   121  118  119 1   
   122  118  127 1   
   123  118  128 1   
   124  119  120 ar  
   125  119  121 ar  
   126  120  122 ar  
   127  120  129 1   
   128  121  123 ar  
   129  121  130 1   
   130  122  124 ar  
   131  122  131 1   
   132  123  124 ar  
   133  123  132 1   
   134  124  133 1   
   135  134  135 1   
   136  134  140 1   
   137  135  136 1   
   138  135  138 1   
   139  135  141 1   
   140  136  137 2   
   141  136  148 1   
   142  138  139 1   
   143  138  142 1   
   144  138  143 1   
   145  139  140 1   
   146  139  144 1   
   147  139  145 1   
   148  140  146 1   
   149  140  147 1   
   150  148  149 1   
   151  148  157 1   
   152  149  150 1   
   153  149  152 1   
   154  149  158 1   
   155  150  151 2   
   156  150  163 1   
   157  152  153 1   
   158  152  159 1   
   159  152  160 1   
   160  153  154 1   
   161  153  161 1   
   162  153  162 1   
   163  154  155 1   
   164  154  156 1   
   165  163  164 1   
   166  163  168 1   
   167  164  165 1   
   168  164  166 1   
   169  164  167 1   
   170  170  171 1   
   171  170  172 1   
   172  173  174 1   
   173  173  175 1   
   174  176  177 1   
   175  176  178 1   
   176  179  180 1   
   177  179  181 1   
@<TRIPOS>SUBSTRUCTURE
     1 MOL         1 TEMP              0 ****  ****    0 ROOT
