@<TRIPOS>MOLECULE
MOL
  198   191     1     0     0
SMALL
resp


@<TRIPOS>ATOM
      1 C1         -6.6550   -2.8160    4.7960 c3        1 MOL     -0.199292
      2 C2         -5.9590   -2.1930    3.5720 c         1 MOL      0.783296
      3 O1         -5.6130   -2.8570    2.6630 o         1 MOL     -0.625229
      4 H1         -6.4240   -3.8800    4.8420 hc        1 MOL      0.039542
      5 H2         -6.3000   -2.3280    5.7030 hc        1 MOL      0.039542
      6 H3         -7.7330   -2.6820    4.7090 hc        1 MOL      0.039542
      7 N1         -5.8130   -0.9090    3.5630 n         1 MOL     -0.600070
      8 C3         -5.2920   -0.0940    2.4400 c3        1 MOL      0.537598
      9 C4         -3.7490   -0.1540    2.3120 c         1 MOL      0.058210
     10 O2         -3.2020    0.5730    1.4830 o         1 MOL     -0.280040
     11 C5         -5.6390    1.3710    2.5830 c3        1 MOL     -0.206969
     12 C6         -7.1730    1.5150    2.8000 c         1 MOL      0.681881
     13 O3         -7.6170    1.1150    3.8830 o         1 MOL     -0.691186
     14 O4         -7.8820    2.1230    1.9670 o         1 MOL     -0.691186
     15 H4         -6.2250   -0.3790    4.3180 hn        1 MOL      0.258001
     16 H5         -5.7550   -0.3640    1.4930 h1        1 MOL     -0.002718
     17 H6         -5.2760    1.9400    1.7230 hc        1 MOL     -0.009464
     18 H7         -5.1240    1.6940    3.4800 hc        1 MOL     -0.009464
     19 N2         -2.9990   -0.9710    3.0710 n         1 MOL     -0.318392
     20 C7         -1.5120   -1.0030    3.1230 c3        1 MOL      0.096052
     21 C8         -0.8700   -2.2030    2.4560 c         1 MOL      0.325250
     22 O5         -1.1630   -3.3500    2.9450 o         1 MOL     -0.536454
     23 C9         -1.0230   -0.9820    4.5830 c3        1 MOL     -0.130986
     24 C10        -1.2540    0.3620    5.2850 c3        1 MOL     -0.113638
     25 C11        -0.4500    1.5380    4.6600 c3        1 MOL      0.188240
     26 C12        -0.7160    2.6710    5.6690 c3        1 MOL      0.056397
     27 N3         -0.1430    3.9660    5.2740 n4        1 MOL     -0.428442
     28 H8         -3.4810   -1.6150    3.6810 hn        1 MOL      0.241413
     29 H9         -1.0660   -0.1360    2.6320 h1        1 MOL      0.184677
     30 H10         0.0600   -1.0810    4.5370 hc        1 MOL      0.080221
     31 H11        -1.4620   -1.7530    5.2150 hc        1 MOL      0.080221
     32 H12        -0.8790    0.1980    6.2970 hc        1 MOL      0.039893
     33 H13        -2.3150    0.6100    5.3590 hc        1 MOL      0.039893
     34 H14        -0.8050    1.8410    3.6720 hc        1 MOL     -0.015455
     35 H15         0.6210    1.3570    4.6600 hc        1 MOL     -0.015455
     36 H16        -0.4190    2.2650    6.6410 hx        1 MOL      0.049606
     37 H17        -1.7960    2.8030    5.7130 hx        1 MOL      0.049606
     38 H18        -0.3500    4.5610    6.0640 hn        1 MOL      0.337775
     39 H19         0.8310    3.7810    5.0560 hn        1 MOL      0.337775
     40 H20        -0.5170    4.3680    4.4340 hn        1 MOL      0.337775
     41 N4          0.0950   -2.1430    1.5870 n         1 MOL     -0.029717
     42 C13         0.7750   -1.0140    0.9510 c3        1 MOL     -0.557419
     43 C14         1.4790    0.0560    1.7950 c         1 MOL      0.840822
     44 O6          1.0410    1.1990    1.9420 o         1 MOL     -0.655341
     45 C15        -0.1550   -0.4110   -0.1230 c3        1 MOL     -0.766345
     46 C16        -0.3460   -1.2660   -1.4150 c         1 MOL      0.763727
     47 O7          0.4880   -2.2590   -1.5610 o         1 MOL     -0.745896
     48 O8         -1.1260   -0.9430   -2.2940 o         1 MOL     -0.745896
     49 H21         0.2710   -3.0500    1.1930 hn        1 MOL      0.160459
     50 H22         1.5690   -1.4740    0.3530 h1        1 MOL      0.175679
     51 H23         0.2560    0.5830   -0.3330 hc        1 MOL      0.395215
     52 H24        -1.1890   -0.2240    0.1780 hc        1 MOL      0.395215
     53 N5          2.6110   -0.1890    2.4040 n         1 MOL     -0.571529
     54 C17         3.3670   -1.4520    2.2350 c3        1 MOL     -0.012190
     55 C18         4.5130   -1.6350    3.2670 c         1 MOL      0.575295
     56 O9          4.6680   -0.9160    4.2260 o         1 MOL     -0.555417
     57 H25         3.1020    0.6390    2.7170 hn        1 MOL      0.348195
     58 H26         3.8600   -1.4630    1.2570 h1        1 MOL      0.079748
     59 H27         2.6530   -2.2680    2.1440 h1        1 MOL      0.079748
     60 N6          5.3750   -2.5900    3.0380 n         1 MOL     -0.493998
     61 C19         5.3840   -3.5420    1.9470 c3        1 MOL      0.150991
     62 C20         6.3400   -3.0830    0.8120 c         1 MOL      0.553358
     63 O10         7.1880   -2.2170    1.0700 o         1 MOL     -0.489433
     64 C21         5.7450   -4.9420    2.4390 c3        1 MOL     -0.098286
     65 C22         6.9670   -5.0930    3.4070 c         1 MOL      0.648951
     66 O11         7.3920   -6.2340    3.5990 o         1 MOL     -0.671707
     67 O12         7.6120   -4.0430    3.7460 o         1 MOL     -0.671707
     68 H28         6.1660   -2.4500    3.6450 hn        1 MOL      0.320354
     69 H29         4.4700   -3.7490    1.3740 h1        1 MOL     -0.023810
     70 H30         5.7410   -5.6300    1.6040 hc        1 MOL     -0.012579
     71 H31         4.8730   -5.1780    3.0430 hc        1 MOL     -0.012579
     72 N7          6.1650   -3.3750   -0.4760 n         1 MOL     -0.401591
     73 C23         7.0600   -2.8470   -1.4750 c3        1 MOL     -0.222231
     74 C24         6.6650   -1.4720   -1.9710 c         1 MOL      0.431044
     75 O13         7.5110   -0.7560   -2.5590 o         1 MOL     -0.525163
     76 H32         5.4700   -4.0710   -0.6600 hn        1 MOL      0.238061
     77 H33         7.1990   -3.5650   -2.2800 h1        1 MOL      0.164207
     78 H34         8.0750   -2.7730   -1.0890 h1        1 MOL      0.164207
     79 N8          5.3690   -0.9760   -1.7980 n         1 MOL     -0.309872
     80 C25         4.9480    0.4060   -2.0760 c3        1 MOL      0.030842
     81 C26         5.2830    1.3540   -0.9840 c         1 MOL      0.479601
     82 O14         4.8720    1.1180    0.2240 o         1 MOL     -0.516505
     83 C27         3.4310    0.5490   -2.4800 c3        1 MOL      0.607567
     84 C28         3.0040   -0.3850   -3.5080 c3        1 MOL     -0.259332
     85 O15         3.2370    1.9220   -2.9630 oh        1 MOL     -0.677737
     86 H35         4.7820   -1.5640   -1.2230 hn        1 MOL      0.144800
     87 H36         5.5160    0.6540   -2.9740 h1        1 MOL      0.078670
     88 H37         2.7490    0.3890   -1.6390 h1        1 MOL      0.009380
     89 H38         2.4730    2.2730   -2.4960 ho        1 MOL      0.363706
     90 H39         1.9170   -0.3890   -3.6150 hc        1 MOL      0.027219
     91 H40         3.5210   -0.0850   -4.4280 hc        1 MOL      0.027219
     92 H41         3.3700   -1.3840   -3.2590 hc        1 MOL      0.027219
     93 N9          5.8530    2.5130   -1.3900 n         1 MOL     -0.235338
     94 C29         6.0670    3.5510   -0.3840 c3        1 MOL     -0.200968
     95 C30         4.7960    4.3770    0.0510 c         1 MOL      0.369983
     96 O16         4.8380    5.2220    0.9140 o         1 MOL     -0.525345
     97 C31         7.2020    4.4740   -0.8930 c3        1 MOL      0.177331
     98 C32         6.9130    4.9300   -2.3060 c3        1 MOL      0.193932
     99 C33         8.5920    3.7820   -0.7780 c3        1 MOL     -0.265920
    100 C34         7.6730    6.2500   -2.6640 c3        1 MOL     -0.351581
    101 H42         6.1540    2.6380   -2.3420 hn        1 MOL      0.183140
    102 H43         6.3430    3.0850    0.5580 h1        1 MOL      0.158366
    103 H44         7.2570    5.3520   -0.2610 hc        1 MOL      0.013285
    104 H45         5.8710    5.1250   -2.5550 hc        1 MOL     -0.018970
    105 H46         7.3040    4.1300   -2.9460 hc        1 MOL     -0.018970
    106 H47         9.4350    4.2670   -1.2770 hc        1 MOL      0.074156
    107 H48         8.8270    3.6390    0.2800 hc        1 MOL      0.074156
    108 H49         8.5130    2.7900   -1.2190 hc        1 MOL      0.074156
    109 H50         8.3380    5.9670   -3.4810 hc        1 MOL      0.077996
    110 H51         6.9920    6.9810   -3.0990 hc        1 MOL      0.077996
    111 H52         8.2350    6.5560   -1.7760 hc        1 MOL      0.077996
    112 N10         3.7110    4.1150   -0.6280 n         1 MOL     -0.034104
    113 C35         2.3710    4.6930   -0.2790 c3        1 MOL      0.186205
    114 C36         1.1540    3.6820   -0.3690 c         1 MOL      0.258117
    115 O17         1.1510    2.7170   -1.1120 o         1 MOL     -0.377204
    116 C37         2.0380    5.9190   -1.1800 c3        1 MOL      0.269528
    117 C38         2.1910    5.6600   -2.6670 c3        1 MOL     -0.407314
    118 O18         2.8360    6.9850   -0.7940 oh        1 MOL     -0.639024
    119 H53         3.7510    3.3310   -1.2700 hn        1 MOL     -0.050953
    120 H54         2.4680    5.0870    0.7320 h1        1 MOL      0.041706
    121 H55         1.0160    6.2140   -0.9680 h1        1 MOL      0.028799
    122 H56         3.3500    7.3240   -1.5330 ho        1 MOL      0.407187
    123 H57         1.4420    4.9750   -3.0470 hc        1 MOL      0.114338
    124 H58         1.8860    6.5230   -3.2680 hc        1 MOL      0.114338
    125 H59         3.1710    5.3910   -3.0630 hc        1 MOL      0.114338
    126 N11         0.1110    3.8980    0.3920 n         1 MOL     -0.352727
    127 C39        -1.1380    3.1800    0.4640 c3        1 MOL      0.030343
    128 C40        -1.8670    2.9870   -0.7960 c         1 MOL      0.346124
    129 O19        -1.5810    3.6370   -1.8250 o         1 MOL     -0.496398
    130 C41        -2.0060    3.8760    1.5300 c3        1 MOL      0.280451
    131 C42        -2.6030    5.2430    1.0150 c3        1 MOL     -0.264391
    132 O20        -1.3530    4.1460    2.6580 oh        1 MOL     -0.571308
    133 H60         0.0960    4.7920    0.8800 hn        1 MOL      0.246823
    134 H61        -1.0030    2.1620    0.8220 h1        1 MOL     -0.017655
    135 H62        -2.8660    3.2380    1.7550 h1        1 MOL      0.097396
    136 H63        -0.8640    4.9680    2.5700 ho        1 MOL      0.346991
    137 H64        -3.1210    5.7490    1.8280 hc        1 MOL      0.068876
    138 H65        -1.8330    5.8980    0.5960 hc        1 MOL      0.068876
    139 H66        -3.3350    5.1310    0.2210 hc        1 MOL      0.068876
    140 N12        -2.9370    2.1210   -0.8850 n         1 MOL     -0.092988
    141 C43        -3.8120    1.9700   -2.0120 c3        1 MOL     -0.095259
    142 C44        -4.2060    0.5450   -2.2720 c         1 MOL      0.758182
    143 O21        -4.6900    0.2580   -3.3870 o         1 MOL     -0.639602
    144 C45        -4.9810    2.9310   -1.6960 c3        1 MOL     -0.021750
    145 C46        -6.0930    3.0730   -2.7520 c3        1 MOL     -0.034838
    146 C47        -7.0550    4.3320   -2.4670 c3        1 MOL      0.010321
    147 C48        -8.3710    4.0440   -3.2130 c3        1 MOL      0.030255
    148 N13        -9.2770    5.2220   -3.1690 n4        1 MOL     -0.283098
    149 H67        -3.3290    1.7920   -0.0100 hn        1 MOL     -0.010107
    150 H68        -3.2580    2.3490   -2.8750 h1        1 MOL      0.099831
    151 H69        -4.6440    3.9590   -1.5640 hc        1 MOL      0.042793
    152 H70        -5.5450    2.4720   -0.8740 hc        1 MOL      0.042793
    153 H71        -6.6620    2.1460   -2.7720 hc        1 MOL      0.010725
    154 H72        -5.5710    3.0790   -3.7060 hc        1 MOL      0.010725
    155 H73        -6.5170    5.1910   -2.8460 hc        1 MOL      0.016347
    156 H74        -7.1930    4.4180   -1.3850 hc        1 MOL      0.016347
    157 H75        -8.7950    3.1340   -2.7920 hx        1 MOL      0.094639
    158 H76        -8.1550    3.7860   -4.2580 hx        1 MOL      0.094639
    159 H77       -10.2460    4.9520   -3.1000 hn        1 MOL      0.301972
    160 H78        -9.0400    5.8080   -2.3850 hn        1 MOL      0.301972
    161 H79        -9.1910    5.8760   -3.9380 hn        1 MOL      0.301972
    162 N14        -4.0860   -0.4240   -1.3040 n         1 MOL     -0.024439
    163 C49        -4.4910   -1.7910   -1.4830 c3        1 MOL     -1.073418
    164 C50        -5.9620   -1.8940   -1.5320 c         1 MOL      0.756070
    165 O22        -6.6260   -1.2870   -0.7330 o         1 MOL     -0.527533
    166 C51        -3.8320   -2.5780   -0.3320 c3        1 MOL      0.335132
    167 C52        -4.1170   -4.0700   -0.5330 c3        1 MOL     -0.756247
    168 C53        -3.5290   -4.4540   -1.8630 c         1 MOL      0.867991
    169 O23        -4.2070   -4.9270   -2.8230 o         1 MOL     -0.738988
    170 O24        -2.2850   -4.4480   -1.9820 o         1 MOL     -0.738988
    171 H80        -3.5770   -0.1650   -0.4650 hn        1 MOL      0.109741
    172 H81        -3.9980   -2.0510   -2.4120 h1        1 MOL      0.387363
    173 H82        -4.3330   -2.2910    0.5870 hc        1 MOL      0.051098
    174 H83        -2.7810   -2.2780   -0.3490 hc        1 MOL      0.051098
    175 H84        -5.1960   -4.1970   -0.5530 hc        1 MOL      0.224329
    176 H85        -3.7090   -4.5790    0.3410 hc        1 MOL      0.224329
    177 N15        -6.5340   -2.7250   -2.3860 n         1 MOL     -0.337313
    178 C54        -8.0320   -2.8730   -2.5280 c3        1 MOL     -0.013063
    179 H86        -8.2920   -3.9320   -2.5340 h1        1 MOL      0.044813
    180 H87        -8.5270   -2.3830   -1.6900 h1        1 MOL      0.044813
    181 H88        -8.3560   -2.4140   -3.4610 h1        1 MOL      0.044813
    182 H89        -5.9620   -3.2820   -3.0120 hn        1 MOL      0.282608
    183 Ca1         0.0860   -4.6580   -2.4570 Ca        1 MOL      1.790437
    184 O25         1.4150   -6.6930   -3.4300 oh        1 MOL     -0.872163
    185 H90         1.3220   -7.4290   -4.0410 ho        1 MOL      0.432347
    186 H91         2.2320   -6.8700   -2.9720 ho        1 MOL      0.432347
    187 O26        -1.2870   -7.1130   -1.7290 oh        1 MOL     -0.872163
    188 H92        -2.1890   -7.0030   -2.0270 ho        1 MOL      0.432347
    189 H93        -1.1070   -8.0500   -1.8540 ho        1 MOL      0.432347
    190 O27        -0.9930   -2.7730   -4.3040 oh        1 MOL     -0.872163
    191 H94        -0.2840   -2.3790   -4.8070 ho        1 MOL      0.432347
    192 H95        -1.3380   -2.0480   -3.7750 ho        1 MOL      0.432347
    193 O28         1.9070   -3.7500   -4.1720 oh        1 MOL     -0.872163
    194 H96         1.9850   -3.0840   -4.8560 ho        1 MOL      0.432347
    195 H97         2.6990   -4.2730   -4.2410 ho        1 MOL      0.432347
    196 O29        -1.2540   -5.9430   -4.4400 oh        1 MOL     -0.872163
    197 H98        -1.3870   -5.3550   -5.1780 ho        1 MOL      0.432347
    198 H99        -1.8020   -6.7000   -4.6250 ho        1 MOL      0.432347
@<TRIPOS>BOND
     1    1    2 1   
     2    1    4 1   
     3    1    5 1   
     4    1    6 1   
     5    2    3 2   
     6    2    7 1   
     7    7    8 1   
     8    7   15 1   
     9    8    9 1   
    10    8   11 1   
    11    8   16 1   
    12    9   10 2   
    13    9   19 1   
    14   11   12 1   
    15   11   17 1   
    16   11   18 1   
    17   12   13 1   
    18   12   14 1   
    19   19   20 1   
    20   19   28 1   
    21   20   21 1   
    22   20   23 1   
    23   20   29 1   
    24   21   22 2   
    25   21   41 1   
    26   23   24 1   
    27   23   30 1   
    28   23   31 1   
    29   24   25 1   
    30   24   32 1   
    31   24   33 1   
    32   25   26 1   
    33   25   34 1   
    34   25   35 1   
    35   26   27 1   
    36   26   36 1   
    37   26   37 1   
    38   27   38 1   
    39   27   39 1   
    40   27   40 1   
    41   41   42 1   
    42   41   49 1   
    43   42   43 1   
    44   42   45 1   
    45   42   50 1   
    46   43   44 2   
    47   43   53 1   
    48   45   46 1   
    49   45   51 1   
    50   45   52 1   
    51   46   47 1   
    52   46   48 1   
    53   53   54 1   
    54   53   57 1   
    55   54   55 1   
    56   54   58 1   
    57   54   59 1   
    58   55   56 2   
    59   55   60 1   
    60   60   61 1   
    61   60   68 1   
    62   61   62 1   
    63   61   64 1   
    64   61   69 1   
    65   62   63 2   
    66   62   72 1   
    67   64   65 1   
    68   64   70 1   
    69   64   71 1   
    70   65   66 1   
    71   65   67 1   
    72   72   73 1   
    73   72   76 1   
    74   73   74 1   
    75   73   77 1   
    76   73   78 1   
    77   74   75 2   
    78   74   79 1   
    79   79   80 1   
    80   79   86 1   
    81   80   81 1   
    82   80   83 1   
    83   80   87 1   
    84   81   82 2   
    85   81   93 1   
    86   83   84 1   
    87   83   85 1   
    88   83   88 1   
    89   84   90 1   
    90   84   91 1   
    91   84   92 1   
    92   85   89 1   
    93   93   94 1   
    94   93  101 1   
    95   94   95 1   
    96   94   97 1   
    97   94  102 1   
    98   95   96 2   
    99   95  112 1   
   100   97   98 1   
   101   97   99 1   
   102   97  103 1   
   103   98  100 1   
   104   98  104 1   
   105   98  105 1   
   106   99  106 1   
   107   99  107 1   
   108   99  108 1   
   109  100  109 1   
   110  100  110 1   
   111  100  111 1   
   112  112  113 1   
   113  112  119 1   
   114  113  114 1   
   115  113  116 1   
   116  113  120 1   
   117  114  115 2   
   118  114  126 1   
   119  116  117 1   
   120  116  118 1   
   121  116  121 1   
   122  117  123 1   
   123  117  124 1   
   124  117  125 1   
   125  118  122 1   
   126  126  127 1   
   127  126  133 1   
   128  127  128 1   
   129  127  130 1   
   130  127  134 1   
   131  128  129 2   
   132  128  140 1   
   133  130  131 1   
   134  130  132 1   
   135  130  135 1   
   136  131  137 1   
   137  131  138 1   
   138  131  139 1   
   139  132  136 1   
   140  140  141 1   
   141  140  149 1   
   142  141  142 1   
   143  141  144 1   
   144  141  150 1   
   145  142  143 2   
   146  142  162 1   
   147  144  145 1   
   148  144  151 1   
   149  144  152 1   
   150  145  146 1   
   151  145  153 1   
   152  145  154 1   
   153  146  147 1   
   154  146  155 1   
   155  146  156 1   
   156  147  148 1   
   157  147  157 1   
   158  147  158 1   
   159  148  159 1   
   160  148  160 1   
   161  148  161 1   
   162  162  163 1   
   163  162  171 1   
   164  163  164 1   
   165  163  166 1   
   166  163  172 1   
   167  164  165 2   
   168  164  177 1   
   169  166  167 1   
   170  166  173 1   
   171  166  174 1   
   172  167  168 1   
   173  167  175 1   
   174  167  176 1   
   175  168  169 1   
   176  168  170 1   
   177  177  178 1   
   178  177  182 1   
   179  178  179 1   
   180  178  180 1   
   181  178  181 1   
   182  184  185 1   
   183  184  186 1   
   184  187  188 1   
   185  187  189 1   
   186  190  191 1   
   187  190  192 1   
   188  193  194 1   
   189  193  195 1   
   190  196  197 1   
   191  196  198 1   
@<TRIPOS>SUBSTRUCTURE
     1 MOL         1 TEMP              0 ****  ****    0 ROOT
