@<TRIPOS>MOLECULE
MOL
  181   177     1     0     0
SMALL
resp


@<TRIPOS>ATOM
      1 C1          8.3670    7.3430   -1.3180 c3        1 MOL     -0.316531
      2 C2          7.2990    6.5350   -0.5900 c         1 MOL      0.677324
      3 O1          6.4280    7.0880    0.0950 o         1 MOL     -0.591759
      4 H1          9.0400    7.7950   -0.5880 hc        1 MOL      0.082859
      5 H2          8.9350    6.6860   -1.9750 hc        1 MOL      0.082859
      6 H3          7.8920    8.1260   -1.9080 hc        1 MOL      0.082859
      7 N1          7.3230    5.2090   -0.5120 n         1 MOL     -0.579436
      8 C3          8.2240    4.2910   -1.2690 c3        1 MOL      0.201393
      9 C4          9.1380    3.3600   -0.4080 c         1 MOL      0.466414
     10 O2         10.0580    2.7340   -0.9430 o         1 MOL     -0.565762
     11 C5          7.4010    3.4070   -2.2510 c3        1 MOL     -0.294871
     12 C6          6.4350    2.3670   -1.6270 c         1 MOL      0.790670
     13 O3          6.2590    2.2480   -0.3690 o         1 MOL     -0.772796
     14 O4          5.6320    1.7880   -2.4270 o         1 MOL     -0.772796
     15 H4          6.6460    4.7440    0.0780 hn        1 MOL      0.331410
     16 H5          8.9510    4.7970   -1.8880 h1        1 MOL      0.058719
     17 H6          8.0970    2.7380   -2.7530 hc        1 MOL      0.083730
     18 H7          6.8200    3.9450   -3.0080 hc        1 MOL      0.083730
     19 N2          8.9510    3.3830    0.9000 n         1 MOL     -0.537347
     20 C7          9.7320    2.5310    1.7760 c3        1 MOL      0.427864
     21 C8          9.1660    1.1190    1.9060 c         1 MOL      0.155867
     22 O5          9.6590    0.3730    2.7810 o         1 MOL     -0.500650
     23 C9          9.9120    3.1760    3.1680 c3        1 MOL     -0.388208
     24 H8          8.1330    3.8250    1.3160 hn        1 MOL      0.307052
     25 H9         10.7500    2.4210    1.4190 h1        1 MOL      0.028384
     26 H10        10.3940    4.1300    2.9690 hc        1 MOL      0.106206
     27 H11         8.9550    3.3260    3.6640 hc        1 MOL      0.106206
     28 H12        10.5290    2.5340    3.7860 hc        1 MOL      0.106206
     29 N3          8.0700    0.7280    1.2470 n         1 MOL     -0.046254
     30 C10         7.5160   -0.6290    1.1930 c3        1 MOL      0.023820
     31 C11         6.9250   -0.9200   -0.2290 c         1 MOL      0.279885
     32 O6          5.7550   -0.7780   -0.4490 o         1 MOL     -0.543500
     33 C12         6.3770   -0.8680    2.1870 c3        1 MOL      0.022440
     34 C13         5.5020    0.3480    2.4090 c         1 MOL      0.788505
     35 O7          4.6170    0.6170    1.6530 o         1 MOL     -0.733140
     36 O8          5.6560    1.0460    3.4250 o         1 MOL     -0.733140
     37 H13         7.5600    1.3670    0.6450 hn        1 MOL      0.190965
     38 H14         8.3370   -1.3390    1.2530 h1        1 MOL      0.026645
     39 H15         6.7450   -1.0950    3.1820 hc        1 MOL     -0.034527
     40 H16         5.6450   -1.6410    1.9640 hc        1 MOL     -0.034527
     41 N4          7.7770   -1.1660   -1.1780 n         1 MOL     -0.238309
     42 C14         7.4550   -1.2490   -2.6620 c3        1 MOL     -0.324135
     43 C15         6.4340   -2.2800   -3.0020 c         1 MOL      0.440072
     44 O9          5.6760   -2.1720   -4.0000 o         1 MOL     -0.530522
     45 H17         8.7420   -1.1710   -0.8910 hn        1 MOL      0.252745
     46 H18         8.3670   -1.6250   -3.1470 h1        1 MOL      0.185744
     47 H19         7.1320   -0.3170   -3.1190 h1        1 MOL      0.185744
     48 N5          6.4230   -3.4020   -2.2520 n         1 MOL     -0.189812
     49 C16         5.4260   -4.4430   -2.4910 c3        1 MOL      0.056205
     50 C17         4.2210   -4.3200   -1.5190 c         1 MOL      0.600196
     51 O10         3.1030   -4.5230   -1.9850 o         1 MOL     -0.508549
     52 C18         6.0400   -5.8450   -2.3820 c3        1 MOL     -0.398385
     53 C19         7.0560   -6.0880   -3.4650 c         1 MOL      0.802364
     54 N6          6.6580   -6.2820   -4.7430 n         1 MOL     -0.857746
     55 O11         8.2380   -5.8630   -3.2530 o         1 MOL     -0.580694
     56 H20         7.0610   -3.5140   -1.4810 hn        1 MOL      0.192907
     57 H21         5.0190   -4.3320   -3.4980 h1        1 MOL      0.069270
     58 H22         5.3090   -6.6450   -2.2560 hc        1 MOL      0.095263
     59 H23         6.6580   -5.7900   -1.4810 hc        1 MOL      0.095263
     60 H24         5.6900   -6.1110   -5.0020 hn        1 MOL      0.373089
     61 H25         7.2730   -6.0040   -5.4890 hn        1 MOL      0.373089
     62 N7          4.4810   -3.8540   -0.3010 n         1 MOL     -0.565625
     63 C20         3.4710   -3.7500    0.7490 c3        1 MOL      0.006738
     64 C21         2.7630   -2.3740    0.8560 c         1 MOL      0.599586
     65 O12         2.9980   -1.4920    0.0010 o         1 MOL     -0.571088
     66 H26         5.4120   -3.6500    0.0380 hn        1 MOL      0.377621
     67 H27         3.8750   -3.9220    1.7370 h1        1 MOL      0.080815
     68 H28         2.6800   -4.4810    0.5630 h1        1 MOL      0.080815
     69 N8          1.7600   -2.2130    1.6610 n         1 MOL     -0.266735
     70 C22         1.1210   -3.1180    2.6170 c3        1 MOL     -0.189498
     71 C23        -0.3860   -2.9370    2.8110 c         1 MOL      0.590544
     72 O13        -1.1040   -3.8540    3.2090 o         1 MOL     -0.576356
     73 C24         1.7080   -2.8630    4.0400 c3        1 MOL      0.226725
     74 C25         3.0150   -3.6050    4.1440 c3        1 MOL     -0.389361
     75 O14         1.8620   -1.4970    4.3150 oh        1 MOL     -0.567980
     76 H29         1.2520   -1.3570    1.5380 hn        1 MOL      0.189286
     77 H30         1.3610   -4.1140    2.2370 h1        1 MOL      0.129957
     78 H31         1.0810   -3.1850    4.8790 h1        1 MOL      0.068673
     79 H32         1.9910   -1.4700    5.2660 ho        1 MOL      0.418379
     80 H33         2.9820   -4.6900    4.0050 hc        1 MOL      0.090822
     81 H34         3.7640   -3.1320    3.5100 hc        1 MOL      0.090822
     82 H35         3.3800   -3.4790    5.1610 hc        1 MOL      0.090822
     83 N9         -0.9360   -1.7440    2.5220 n         1 MOL     -0.367445
     84 C26        -2.2910   -1.3750    2.4890 c3        1 MOL      0.118523
     85 C27        -2.5720   -0.7580    1.0740 c         1 MOL      0.263815
     86 O15        -1.6890   -0.0400    0.6840 o         1 MOL     -0.515590
     87 C28        -2.6060   -0.2610    3.5010 c3        1 MOL     -0.061536
     88 C29        -1.9660   -0.4760    4.9480 c3        1 MOL      0.027681
     89 C30        -4.0750    0.1500    3.5280 c3        1 MOL     -0.002374
     90 C31        -2.4460   -1.7000    5.7810 c3        1 MOL     -0.138734
     91 H36        -0.3620   -0.9830    2.1640 hn        1 MOL      0.282902
     92 H37        -2.9740   -2.2190    2.6610 h1        1 MOL      0.110071
     93 H38        -2.1510    0.6650    3.1670 hc        1 MOL      0.094594
     94 H39        -1.9910    0.4700    5.5030 hc        1 MOL     -0.001597
     95 H40        -0.8820   -0.5950    4.9410 hc        1 MOL     -0.001597
     96 H41        -4.7270   -0.6650    3.8510 hc        1 MOL      0.002588
     97 H42        -4.1450    0.8510    4.3520 hc        1 MOL      0.002588
     98 H43        -4.4550    0.4840    2.5610 hc        1 MOL      0.002588
     99 H44        -2.6110   -2.5720    5.1370 hc        1 MOL      0.018298
    100 H45        -1.6850   -2.0230    6.4840 hc        1 MOL      0.018298
    101 H46        -3.4080   -1.5670    6.2660 hc        1 MOL      0.018298
    102 N10        -3.6930   -0.8510    0.3780 n         1 MOL     -0.078271
    103 C32        -4.7840   -1.7390    0.7240 c3        1 MOL      0.015821
    104 C33        -6.1210   -1.2900   -0.0170 c         1 MOL      0.586359
    105 O16        -6.0250   -0.8470   -1.1730 o         1 MOL     -0.503013
    106 C34        -4.4620   -3.2180    0.4140 c3        1 MOL     -0.089073
    107 C35        -3.6380   -3.5050   -0.8760 c         1 MOL      0.672053
    108 O17        -2.3860   -3.6320   -0.8310 o         1 MOL     -0.709827
    109 O18        -4.2690   -3.5870   -1.9400 o         1 MOL     -0.709827
    110 H47        -3.6730   -0.4700   -0.5520 hn        1 MOL      0.229812
    111 H48        -5.0840   -1.6760    1.7720 h1        1 MOL      0.004671
    112 H49        -5.3780   -3.7980    0.3540 hc        1 MOL     -0.021388
    113 H50        -3.8860   -3.5350    1.2870 hc        1 MOL     -0.021388
    114 N11        -7.3200   -1.4700    0.5880 n         1 MOL     -0.642654
    115 C36        -8.6160   -1.0980    0.0450 c3        1 MOL      0.452994
    116 C37        -9.3800   -0.1680    0.9700 c         1 MOL      0.400830
    117 O19        -9.5540   -0.5230    2.1390 o         1 MOL     -0.539093
    118 C38        -9.2930   -2.4660   -0.1680 c3        1 MOL     -0.141692
    119 C39       -10.5950   -2.2890   -0.8430 ca        1 MOL      0.120953
    120 C40       -11.8130   -2.2640   -0.1690 ca        1 MOL     -0.220486
    121 C41       -10.6090   -2.0240   -2.2260 ca        1 MOL     -0.220486
    122 C42       -12.9900   -1.8510   -0.7530 ca        1 MOL     -0.060095
    123 C43       -11.7390   -1.5920   -2.8790 ca        1 MOL     -0.060095
    124 C44       -12.9400   -1.5540   -2.1000 ca        1 MOL     -0.152804
    125 H51        -7.3410   -1.8110    1.5330 hn        1 MOL      0.314085
    126 H52        -8.4430   -0.5960   -0.9140 h1        1 MOL     -0.039393
    127 H53        -9.5210   -2.9190    0.7960 hc        1 MOL      0.054682
    128 H54        -8.6720   -3.1470   -0.7520 hc        1 MOL      0.054682
    129 H55       -11.7570   -2.3890    0.8990 ha        1 MOL      0.134655
    130 H56        -9.6850   -1.9810   -2.7800 ha        1 MOL      0.134655
    131 H57       -13.9260   -1.8870   -0.2040 ha        1 MOL      0.099157
    132 H58       -11.8530   -1.3260   -3.9140 ha        1 MOL      0.099157
    133 H59       -13.8880   -1.3590   -2.5780 ha        1 MOL      0.081480
    134 N12        -9.8060    0.9960    0.4450 n         1 MOL     -0.073574
    135 C45        -9.8910    1.3140   -0.9520 c3        1 MOL     -0.027514
    136 C46        -8.7680    1.9730   -1.6800 c         1 MOL      0.436628
    137 O20        -8.4320    1.7480   -2.8330 o         1 MOL     -0.523193
    138 C47       -11.0490    2.2660   -1.1080 c3        1 MOL     -0.161045
    139 C48       -11.9530    1.9830    0.0990 c3        1 MOL      0.121240
    140 C49       -10.8160    1.7360    1.1470 c3        1 MOL     -0.194681
    141 H60       -10.1970    0.4480   -1.5430 h1        1 MOL      0.097993
    142 H61       -10.7830    3.3070   -0.9280 hc        1 MOL      0.058356
    143 H62       -11.5000    2.1310   -2.0910 hc        1 MOL      0.058356
    144 H63       -12.7270    2.7040    0.3440 hc        1 MOL     -0.015899
    145 H64       -12.4030    0.9980   -0.0120 hc        1 MOL     -0.015899
    146 H65       -10.4140    2.6140    1.6570 h1        1 MOL      0.088293
    147 H66       -11.3130    1.1270    1.9020 h1        1 MOL      0.088293
    148 N13        -8.0220    2.7930   -0.8880 n         1 MOL     -0.269507
    149 C50        -6.8120    3.4720   -1.3230 c3        1 MOL      0.044052
    150 C51        -7.0140    4.6960   -2.1390 c         1 MOL      0.338417
    151 O21        -7.5190    5.7130   -1.7120 o         1 MOL     -0.557345
    152 C52        -6.1380    3.8600   -0.0320 c3        1 MOL      0.146261
    153 C53        -5.6620    2.6130    0.7350 c3        1 MOL     -0.237236
    154 C54        -4.8160    3.0910    1.9240 c         1 MOL      0.768733
    155 O22        -5.4230    3.4350    2.9720 o         1 MOL     -0.738856
    156 O23        -3.5740    3.2290    1.9200 o         1 MOL     -0.738856
    157 H67        -8.2660    2.9640    0.0790 hn        1 MOL      0.270711
    158 H68        -6.0570    2.8710   -1.8250 h1        1 MOL      0.121998
    159 H69        -6.8590    4.4490    0.5300 hc        1 MOL     -0.014124
    160 H70        -5.2720    4.5180   -0.1670 hc        1 MOL     -0.014124
    161 H71        -5.1520    1.8860    0.1010 hc        1 MOL     -0.043798
    162 H72        -6.4920    1.9820    1.0410 hc        1 MOL     -0.043798
    163 N14        -6.7290    4.6700   -3.4290 n         1 MOL     -0.225440
    164 C55        -6.2050    3.6680   -4.3640 c3        1 MOL     -0.210218
    165 H73        -7.0160    3.2950   -4.9890 h1        1 MOL      0.097267
    166 H74        -5.4400    4.1210   -4.9940 h1        1 MOL      0.097267
    167 H75        -5.7700    2.8400   -3.8030 h1        1 MOL      0.097267
    168 H76        -6.9220    5.6090   -3.7440 hn        1 MOL      0.226022
    169 Ca1         3.8940    0.9640   -0.7660 Ca        1 MOL      1.682841
    170 O24         1.0650    0.8500   -0.4790 oh        1 MOL     -0.763004
    171 H77         0.7510    0.0710   -0.9360 ho        1 MOL      0.390471
    172 H78         0.3090    1.1440    0.0450 ho        1 MOL      0.390471
    173 O25         3.0190    2.9610    0.8490 oh        1 MOL     -0.763004
    174 H79         3.2960    2.7850    1.7470 ho        1 MOL      0.390471
    175 H80         3.3130    3.8540    0.6770 ho        1 MOL      0.390471
    176 O26         2.6480    2.2810   -2.6410 oh        1 MOL     -0.763004
    177 H81         2.2750    3.1550   -2.7740 ho        1 MOL      0.390471
    178 H82         2.9930    2.0380   -3.5020 ho        1 MOL      0.390471
    179 O27         3.6150   -0.6050   -2.8850 oh        1 MOL     -0.763004
    180 H83         4.2240   -0.6510   -3.6190 ho        1 MOL      0.390471
    181 H84         2.9680   -1.2860   -3.0600 ho        1 MOL      0.390471
@<TRIPOS>BOND
     1    1    2 1   
     2    1    4 1   
     3    1    5 1   
     4    1    6 1   
     5    2    3 2   
     6    2    7 1   
     7    7    8 1   
     8    7   15 1   
     9    8    9 1   
    10    8   11 1   
    11    8   16 1   
    12    9   10 2   
    13    9   19 1   
    14   11   12 1   
    15   11   17 1   
    16   11   18 1   
    17   12   13 1   
    18   12   14 1   
    19   19   20 1   
    20   19   24 1   
    21   20   21 1   
    22   20   23 1   
    23   20   25 1   
    24   21   22 2   
    25   21   29 1   
    26   23   26 1   
    27   23   27 1   
    28   23   28 1   
    29   29   30 1   
    30   29   37 1   
    31   30   31 1   
    32   30   33 1   
    33   30   38 1   
    34   31   32 2   
    35   31   41 1   
    36   33   34 1   
    37   33   39 1   
    38   33   40 1   
    39   34   35 1   
    40   34   36 1   
    41   41   42 1   
    42   41   45 1   
    43   42   43 1   
    44   42   46 1   
    45   42   47 1   
    46   43   44 2   
    47   43   48 1   
    48   48   49 1   
    49   48   56 1   
    50   49   50 1   
    51   49   52 1   
    52   49   57 1   
    53   50   51 2   
    54   50   62 1   
    55   52   53 1   
    56   52   58 1   
    57   52   59 1   
    58   53   54 1   
    59   53   55 2   
    60   54   60 1   
    61   54   61 1   
    62   62   63 1   
    63   62   66 1   
    64   63   64 1   
    65   63   67 1   
    66   63   68 1   
    67   64   65 2   
    68   64   69 1   
    69   69   70 1   
    70   69   76 1   
    71   70   71 1   
    72   70   73 1   
    73   70   77 1   
    74   71   72 2   
    75   71   83 1   
    76   73   74 1   
    77   73   75 1   
    78   73   78 1   
    79   74   80 1   
    80   74   81 1   
    81   74   82 1   
    82   75   79 1   
    83   83   84 1   
    84   83   91 1   
    85   84   85 1   
    86   84   87 1   
    87   84   92 1   
    88   85   86 2   
    89   85  102 1   
    90   87   88 1   
    91   87   89 1   
    92   87   93 1   
    93   88   90 1   
    94   88   94 1   
    95   88   95 1   
    96   89   96 1   
    97   89   97 1   
    98   89   98 1   
    99   90   99 1   
   100   90  100 1   
   101   90  101 1   
   102  102  103 1   
   103  102  110 1   
   104  103  104 1   
   105  103  106 1   
   106  103  111 1   
   107  104  105 2   
   108  104  114 1   
   109  106  107 1   
   110  106  112 1   
   111  106  113 1   
   112  107  108 1   
   113  107  109 1   
   114  114  115 1   
   115  114  125 1   
   116  115  116 1   
   117  115  118 1   
   118  115  126 1   
   119  116  117 2   
   120  116  134 1   
   121  118  119 1   
   122  118  127 1   
   123  118  128 1   
   124  119  120 ar  
   125  119  121 ar  
   126  120  122 ar  
   127  120  129 1   
   128  121  123 ar  
   129  121  130 1   
   130  122  124 ar  
   131  122  131 1   
   132  123  124 ar  
   133  123  132 1   
   134  124  133 1   
   135  134  135 1   
   136  134  140 1   
   137  135  136 1   
   138  135  138 1   
   139  135  141 1   
   140  136  137 2   
   141  136  148 1   
   142  138  139 1   
   143  138  142 1   
   144  138  143 1   
   145  139  140 1   
   146  139  144 1   
   147  139  145 1   
   148  140  146 1   
   149  140  147 1   
   150  148  149 1   
   151  148  157 1   
   152  149  150 1   
   153  149  152 1   
   154  149  158 1   
   155  150  151 2   
   156  150  163 1   
   157  152  153 1   
   158  152  159 1   
   159  152  160 1   
   160  153  154 1   
   161  153  161 1   
   162  153  162 1   
   163  154  155 1   
   164  154  156 1   
   165  163  164 1   
   166  163  168 1   
   167  164  165 1   
   168  164  166 1   
   169  164  167 1   
   170  170  171 1   
   171  170  172 1   
   172  173  174 1   
   173  173  175 1   
   174  176  177 1   
   175  176  178 1   
   176  179  180 1   
   177  179  181 1   
@<TRIPOS>SUBSTRUCTURE
     1 MOL         1 TEMP              0 ****  ****    0 ROOT
