@<TRIPOS>MOLECULE
MOL
  192   187     1     0     0
SMALL
resp


@<TRIPOS>ATOM
      1 C1         -9.5510    0.6280   -1.6480 c3        1 MOL     -0.508891
      2 C2         -8.3150    0.3280   -0.7890 c         1 MOL      0.813886
      3 O1         -7.2170    0.5120   -1.2490 o         1 MOL     -0.664684
      4 H1        -10.3280    1.0710   -1.0240 hc        1 MOL      0.118554
      5 H2         -9.2830    1.3250   -2.4420 hc        1 MOL      0.118554
      6 H3         -9.9230   -0.2980   -2.0880 hc        1 MOL      0.118554
      7 N1         -8.4620   -0.1430    0.4360 n         1 MOL     -0.473993
      8 C3         -7.3260   -0.4290    1.3240 c3        1 MOL     -0.367795
      9 C4         -6.6670   -1.8210    1.2380 c         1 MOL      0.584963
     10 O2         -6.1090   -2.3880    2.2010 o         1 MOL     -0.444136
     11 C5         -7.6660   -0.0930    2.7660 c3        1 MOL     -0.013405
     12 C6         -8.7860   -0.9550    3.4200 c         1 MOL      0.643821
     13 O3         -9.2650   -1.9190    2.7730 o         1 MOL     -0.620927
     14 O4         -9.0830   -0.7290    4.6320 o         1 MOL     -0.620927
     15 H4         -9.3530   -0.4260    0.8240 hn        1 MOL      0.267348
     16 H5         -6.5130    0.2440    1.0160 h1        1 MOL      0.267756
     17 H6         -7.9710    0.9340    2.9750 hc        1 MOL      0.035558
     18 H7         -6.7370   -0.0810    3.3370 hc        1 MOL      0.035558
     19 N2         -6.7440   -2.4190    0.0650 n         1 MOL     -0.366922
     20 C7         -6.0630   -3.6690   -0.2910 c3        1 MOL     -0.045983
     21 C8         -4.6860   -3.7860    0.3200 c         1 MOL      0.650653
     22 O5         -4.3330   -4.8500    0.7500 o         1 MOL     -0.577273
     23 C9         -6.0480   -3.9650   -1.8120 c3        1 MOL     -0.198751
     24 C10        -7.5520   -4.2330   -2.1730 c3        1 MOL      0.197753
     25 C11        -7.8450   -4.5520   -3.6430 c3        1 MOL     -0.039440
     26 C12        -9.3640   -4.2460   -3.8940 c3        1 MOL      0.114893
     27 N3         -9.6140   -4.0350   -5.3150 n4        1 MOL     -0.289183
     28 H8         -7.2400   -1.9560   -0.6820 hn        1 MOL      0.237405
     29 H9         -6.6060   -4.4730    0.2090 h1        1 MOL      0.100977
     30 H10        -5.4840   -4.8880   -1.9260 hc        1 MOL      0.071138
     31 H11        -5.6940   -3.2040   -2.5010 hc        1 MOL      0.071138
     32 H12        -7.9940   -3.2660   -1.9570 hc        1 MOL     -0.022651
     33 H13        -8.1330   -4.9380   -1.5860 hc        1 MOL     -0.022651
     34 H14        -7.5860   -5.5750   -3.9070 hc        1 MOL      0.014858
     35 H15        -7.2150   -3.8530   -4.1990 hc        1 MOL      0.014858
     36 H16        -9.6150   -3.3470   -3.3370 hx        1 MOL      0.051957
     37 H17       -10.0110   -5.0100   -3.4650 hx        1 MOL      0.051957
     38 H18       -10.5720   -3.7940   -5.5280 hn        1 MOL      0.260892
     39 H19        -9.0580   -3.2870   -5.6880 hn        1 MOL      0.260892
     40 H20        -9.3760   -4.8670   -5.8390 hn        1 MOL      0.260892
     41 N4         -3.8300   -2.7740    0.4610 n         1 MOL     -0.514399
     42 C13        -3.7760   -1.6070   -0.4160 c3        1 MOL      0.078680
     43 C14        -3.8570   -0.1790    0.2620 c         1 MOL      0.010494
     44 O6         -3.9040    0.0290    1.4710 o         1 MOL     -0.321703
     45 C15        -2.6230   -1.8170   -1.3120 c3        1 MOL     -0.194000
     46 C16        -1.2620   -2.0070   -0.5990 c         1 MOL      0.694408
     47 O7         -0.8780   -1.1840    0.3050 o         1 MOL     -0.650997
     48 O8         -0.4760   -2.8750   -1.0870 o         1 MOL     -0.650997
     49 H21        -3.0350   -2.8650    1.0730 hn        1 MOL      0.386314
     50 H22        -4.6340   -1.6590   -1.0920 h1        1 MOL      0.116564
     51 H23        -2.4880   -0.9410   -1.9560 hc        1 MOL      0.056593
     52 H24        -2.8300   -2.6450   -1.9900 hc        1 MOL      0.056593
     53 N5         -3.9080    0.8530   -0.5690 n         1 MOL     -0.285096
     54 C17        -4.0030    2.2160   -0.0420 c3        1 MOL      0.115148
     55 C18        -2.7320    2.7200    0.6040 c         1 MOL      0.472720
     56 O9         -1.7470    2.0040    0.7700 o         1 MOL     -0.403593
     57 H25        -3.8950    0.7030   -1.5740 hn        1 MOL      0.269864
     58 H26        -4.8200    2.2650    0.6760 h1        1 MOL      0.030868
     59 H27        -4.2560    3.0130   -0.7530 h1        1 MOL      0.030868
     60 N6         -2.8300    4.0330    1.0540 n         1 MOL     -0.373111
     61 C19        -1.8680    4.8360    1.8020 c3        1 MOL      0.168826
     62 C20        -2.0810    6.3580    1.6760 c         1 MOL      0.502017
     63 O10        -3.1570    6.8700    1.4160 o         1 MOL     -0.537812
     64 C21        -1.7090    4.2940    3.2410 c3        1 MOL     -0.060742
     65 C22        -1.0260    2.9680    3.4230 c         1 MOL      0.575515
     66 O11        -1.6030    2.0940    4.1310 o         1 MOL     -0.643342
     67 O12         0.0300    2.7710    2.8560 o         1 MOL     -0.643342
     68 H28        -3.7850    4.3710    1.0720 hn        1 MOL      0.228458
     69 H29        -0.8990    4.6090    1.3500 h1        1 MOL      0.064955
     70 H30        -2.6920    4.2880    3.7130 hc        1 MOL      0.015184
     71 H31        -1.1220    5.0410    3.7850 hc        1 MOL      0.015184
     72 N7         -1.0820    7.2310    1.8430 n         1 MOL     -0.476435
     73 C23         0.3430    7.0150    2.0510 c3        1 MOL      0.012727
     74 C24         1.2160    6.4930    0.8530 c         1 MOL      0.724631
     75 O13         0.9650    6.8680   -0.2280 o         1 MOL     -0.541479
     76 H32        -1.2830    8.1710    1.5370 hn        1 MOL      0.330478
     77 H33         0.4140    6.3590    2.9160 h1        1 MOL      0.036112
     78 H34         0.8480    7.9450    2.2950 h1        1 MOL      0.036112
     79 N8          2.1830    5.5950    1.0820 n         1 MOL     -0.744207
     80 C25         2.7840    4.8900    0.0030 c3        1 MOL      0.415902
     81 C26         1.8100    3.8640   -0.5920 c         1 MOL     -0.043835
     82 O14         1.1480    3.2450    0.2210 o         1 MOL     -0.467423
     83 C27         4.0920    4.1370    0.4210 c3        1 MOL      0.158263
     84 C28         5.2420    5.0040    0.9390 c3        1 MOL     -0.363274
     85 O15         4.6580    3.3870   -0.6560 oh        1 MOL     -0.618567
     86 H35         2.3640    5.2040    1.9960 hn        1 MOL      0.335395
     87 H36         3.1050    5.6120   -0.7380 h1        1 MOL      0.032711
     88 H37         3.7480    3.4550    1.2030 h1        1 MOL      0.167839
     89 H38         5.4540    3.8630   -0.9260 ho        1 MOL      0.415186
     90 H39         6.0220    4.3400    1.3060 hc        1 MOL      0.104931
     91 H40         5.5160    5.6000    0.0660 hc        1 MOL      0.104931
     92 H41         4.8610    5.5410    1.8060 hc        1 MOL      0.104931
     93 N9          1.7080    3.6160   -1.9150 n         1 MOL     -0.258485
     94 C29         0.7640    2.7760   -2.6150 c3        1 MOL     -0.138791
     95 C30         1.0450    1.2850   -2.2320 c         1 MOL      0.652113
     96 O16         0.7610    0.8730   -1.1230 o         1 MOL     -0.575384
     97 C31        -0.7110    3.2280   -2.3890 c3        1 MOL      0.132858
     98 C32        -0.8160    4.8420   -2.5920 c3        1 MOL      0.008238
     99 C33        -1.4930    2.3120   -3.3510 c3        1 MOL     -0.318825
    100 C34        -2.3050    5.3550   -2.6280 c3        1 MOL     -0.328122
    101 H42         2.3190    4.0510   -2.6000 hn        1 MOL      0.269479
    102 H43         0.9940    2.8960   -3.6780 h1        1 MOL      0.081905
    103 H44        -0.9310    2.9770   -1.3530 hc        1 MOL     -0.026073
    104 H45        -0.1390    5.2100   -3.3570 hc        1 MOL      0.040660
    105 H46        -0.3180    5.2870   -1.7230 hc        1 MOL      0.040660
    106 H47        -2.5630    2.4960   -3.2260 hc        1 MOL      0.078883
    107 H48        -1.2680    2.5480   -4.3950 hc        1 MOL      0.078883
    108 H49        -1.2160    1.2670   -3.1930 hc        1 MOL      0.078883
    109 H50        -2.7900    5.2080   -1.6670 hc        1 MOL      0.088674
    110 H51        -2.2580    6.4310   -2.7170 hc        1 MOL      0.088674
    111 H52        -2.6820    4.8660   -3.5300 hc        1 MOL      0.088674
    112 N10         1.5560    0.4670   -3.1190 n         1 MOL     -0.320507
    113 C35         1.8980   -0.9730   -2.9980 c3        1 MOL     -0.018086
    114 C36         3.4030   -1.2260   -3.0630 c         1 MOL      0.454982
    115 O17         3.8630   -2.3000   -3.5450 o         1 MOL     -0.559349
    116 C37         0.9670   -1.8540   -3.8970 c3        1 MOL      0.500574
    117 C38         0.9280   -1.4360   -5.3870 c3        1 MOL     -0.311302
    118 O18        -0.4290   -1.6890   -3.6140 oh        1 MOL     -0.598589
    119 H53         1.7500    0.9380   -3.9930 hn        1 MOL      0.193199
    120 H54         1.5150   -1.3470   -2.0500 h1        1 MOL      0.053132
    121 H55         1.2580   -2.9030   -3.8190 h1        1 MOL     -0.002287
    122 H56        -0.5170   -2.0740   -2.7390 ho        1 MOL      0.296121
    123 H57         0.7420   -0.3810   -5.5480 hc        1 MOL      0.061013
    124 H58         1.8690   -1.8220   -5.7760 hc        1 MOL      0.061013
    125 H59         0.1700   -2.0460   -5.8730 hc        1 MOL      0.061013
    126 N11         4.2040   -0.2230   -2.6600 n         1 MOL     -0.181871
    127 C39         5.6940   -0.1720   -2.9150 c3        1 MOL     -0.018648
    128 C40         6.4390   -0.7440   -1.7160 c         1 MOL      0.613789
    129 O19         6.8210    0.0370   -0.8350 o         1 MOL     -0.526363
    130 C41         6.2740    1.2230   -3.2450 c3        1 MOL      0.424333
    131 C42         7.6630    1.2890   -3.8200 c3        1 MOL     -0.441791
    132 O20         5.5230    1.8650   -4.2290 oh        1 MOL     -0.677249
    133 H60         3.7750    0.6440   -2.3650 hn        1 MOL      0.186211
    134 H61         5.8460   -0.7510   -3.8310 h1        1 MOL      0.068872
    135 H62         6.1230    1.8090   -2.3410 h1        1 MOL     -0.036812
    136 H63         6.0290    2.6280   -4.5140 ho        1 MOL      0.411514
    137 H64         8.4060    0.7840   -3.2120 hc        1 MOL      0.110228
    138 H65         7.6790    0.7830   -4.7880 hc        1 MOL      0.110228
    139 H66         8.0350    2.3080   -3.9360 hc        1 MOL      0.110228
    140 N12         6.4350   -2.0810   -1.5800 n         1 MOL     -0.765941
    141 C43         6.3820   -2.7690   -0.2430 c3        1 MOL      0.417746
    142 C44         5.1870   -2.2690    0.6310 c         1 MOL      0.312599
    143 O21         4.7530   -1.0930    0.6520 o         1 MOL     -0.438298
    144 C45         7.6330   -2.4720    0.5900 c3        1 MOL     -0.616219
    145 C46         8.9420   -2.7430   -0.2130 c3        1 MOL      0.251232
    146 C47        10.2580   -2.6890    0.6560 c3        1 MOL     -0.006422
    147 C48        11.4060   -3.0280   -0.3360 c3        1 MOL      0.096457
    148 N13        12.6270   -3.4730    0.3540 n4        1 MOL     -0.218875
    149 H67         5.9910   -2.5950   -2.3370 hn        1 MOL      0.353952
    150 H68         6.3850   -3.8540   -0.2950 h1        1 MOL      0.008421
    151 H69         7.6350   -3.0970    1.4830 hc        1 MOL      0.175860
    152 H70         7.6450   -1.4260    0.9170 hc        1 MOL      0.175860
    153 H71         8.9670   -2.0420   -1.0520 hc        1 MOL     -0.002659
    154 H72         8.9360   -3.7420   -0.6360 hc        1 MOL     -0.002659
    155 H73        10.2570   -3.5170    1.3580 hc        1 MOL      0.019351
    156 H74        10.4480   -1.7070    1.0960 hc        1 MOL      0.019351
    157 H75        11.6370   -2.1360   -0.9360 hx        1 MOL      0.026002
    158 H76        10.9600   -3.8030   -0.9650 hx        1 MOL      0.026002
    159 H77        12.3800   -4.1760    1.0370 hn        1 MOL      0.221308
    160 H78        13.2450   -3.8450   -0.3640 hn        1 MOL      0.221308
    161 H79        13.0220   -2.7010    0.8580 hn        1 MOL      0.221308
    162 N14         4.5070   -3.1870    1.3210 n         1 MOL     -0.308410
    163 C49         3.3790   -2.8310    2.2190 c3        1 MOL      0.091893
    164 C50         2.0510   -2.7250    1.4260 c         1 MOL      0.281630
    165 O22         1.2830   -1.8570    1.7150 o         1 MOL     -0.518463
    166 C51         3.2240   -3.8140    3.4520 c3        1 MOL      0.056660
    167 C52         4.4340   -3.9380    4.3850 c3        1 MOL     -0.214338
    168 C53         4.2460   -5.1070    5.3570 c         1 MOL      0.681594
    169 O23         4.0320   -6.2850    4.9620 o         1 MOL     -0.636077
    170 O24         4.2990   -4.8620    6.5970 o         1 MOL     -0.636077
    171 H80         4.7180   -4.1710    1.3050 hn        1 MOL      0.282348
    172 H81         3.5390   -1.8310    2.6310 h1        1 MOL      0.058630
    173 H82         3.0600   -4.8470    3.1360 hc        1 MOL      0.033614
    174 H83         2.4370   -3.4430    4.1140 hc        1 MOL      0.033614
    175 H84         4.5340   -2.9990    4.9400 hc        1 MOL      0.007647
    176 H85         5.3240   -4.1290    3.7900 hc        1 MOL      0.007647
    177 N15         1.5790   -3.5730    0.5000 n         1 MOL     -0.176724
    178 C54         2.0280   -4.8470   -0.0580 c3        1 MOL     -0.139640
    179 H86         3.0740   -4.7650   -0.3540 h1        1 MOL      0.055090
    180 H87         1.9250   -5.6310    0.6930 h1        1 MOL      0.055090
    181 H88         1.4230   -5.0970   -0.9300 h1        1 MOL      0.055090
    182 H89         0.7020   -3.2320    0.1050 hn        1 MOL      0.276172
    183 Ca1         0.4700    0.7660    1.3510 Ca        1 MOL      1.805913
    184 O25         2.6090    0.8110    3.2230 oh        1 MOL     -0.872511
    185 H90         2.6670   -0.0440    3.6450 ho        1 MOL      0.406700
    186 H91         3.3500    1.2990    3.5750 ho        1 MOL      0.406700
    187 O26        -0.5020   -0.1320    3.6880 oh        1 MOL     -0.872511
    188 H92        -0.0440   -0.4550    4.4630 ho        1 MOL      0.406700
    189 H93        -0.8680    0.7050    3.9630 ho        1 MOL      0.406700
    190 O27         3.0110    1.0160    0.3100 oh        1 MOL     -0.872511
    191 H94         3.4340    1.6850   -0.2110 ho        1 MOL      0.406700
    192 H95         3.7270    0.5610    0.7530 ho        1 MOL      0.406700
@<TRIPOS>BOND
     1    1    2 1   
     2    1    4 1   
     3    1    5 1   
     4    1    6 1   
     5    2    3 2   
     6    2    7 1   
     7    7    8 1   
     8    7   15 1   
     9    8    9 1   
    10    8   11 1   
    11    8   16 1   
    12    9   10 2   
    13    9   19 1   
    14   11   12 1   
    15   11   17 1   
    16   11   18 1   
    17   12   13 1   
    18   12   14 1   
    19   19   20 1   
    20   19   28 1   
    21   20   21 1   
    22   20   23 1   
    23   20   29 1   
    24   21   22 2   
    25   21   41 1   
    26   23   24 1   
    27   23   30 1   
    28   23   31 1   
    29   24   25 1   
    30   24   32 1   
    31   24   33 1   
    32   25   26 1   
    33   25   34 1   
    34   25   35 1   
    35   26   27 1   
    36   26   36 1   
    37   26   37 1   
    38   27   38 1   
    39   27   39 1   
    40   27   40 1   
    41   41   42 1   
    42   41   49 1   
    43   42   43 1   
    44   42   45 1   
    45   42   50 1   
    46   43   44 2   
    47   43   53 1   
    48   45   46 1   
    49   45   51 1   
    50   45   52 1   
    51   46   47 1   
    52   46   48 1   
    53   53   54 1   
    54   53   57 1   
    55   54   55 1   
    56   54   58 1   
    57   54   59 1   
    58   55   56 2   
    59   55   60 1   
    60   60   61 1   
    61   60   68 1   
    62   61   62 1   
    63   61   64 1   
    64   61   69 1   
    65   62   63 2   
    66   62   72 1   
    67   64   65 1   
    68   64   70 1   
    69   64   71 1   
    70   65   66 1   
    71   65   67 1   
    72   72   73 1   
    73   72   76 1   
    74   73   74 1   
    75   73   77 1   
    76   73   78 1   
    77   74   75 2   
    78   74   79 1   
    79   79   80 1   
    80   79   86 1   
    81   80   81 1   
    82   80   83 1   
    83   80   87 1   
    84   81   82 2   
    85   81   93 1   
    86   83   84 1   
    87   83   85 1   
    88   83   88 1   
    89   84   90 1   
    90   84   91 1   
    91   84   92 1   
    92   85   89 1   
    93   93   94 1   
    94   93  101 1   
    95   94   95 1   
    96   94   97 1   
    97   94  102 1   
    98   95   96 2   
    99   95  112 1   
   100   97   98 1   
   101   97   99 1   
   102   97  103 1   
   103   98  100 1   
   104   98  104 1   
   105   98  105 1   
   106   99  106 1   
   107   99  107 1   
   108   99  108 1   
   109  100  109 1   
   110  100  110 1   
   111  100  111 1   
   112  112  113 1   
   113  112  119 1   
   114  113  114 1   
   115  113  116 1   
   116  113  120 1   
   117  114  115 2   
   118  114  126 1   
   119  116  117 1   
   120  116  118 1   
   121  116  121 1   
   122  117  123 1   
   123  117  124 1   
   124  117  125 1   
   125  118  122 1   
   126  126  127 1   
   127  126  133 1   
   128  127  128 1   
   129  127  130 1   
   130  127  134 1   
   131  128  129 2   
   132  128  140 1   
   133  130  131 1   
   134  130  132 1   
   135  130  135 1   
   136  131  137 1   
   137  131  138 1   
   138  131  139 1   
   139  132  136 1   
   140  140  141 1   
   141  140  149 1   
   142  141  142 1   
   143  141  144 1   
   144  141  150 1   
   145  142  143 2   
   146  142  162 1   
   147  144  145 1   
   148  144  151 1   
   149  144  152 1   
   150  145  146 1   
   151  145  153 1   
   152  145  154 1   
   153  146  147 1   
   154  146  155 1   
   155  146  156 1   
   156  147  148 1   
   157  147  157 1   
   158  147  158 1   
   159  148  159 1   
   160  148  160 1   
   161  148  161 1   
   162  162  163 1   
   163  162  171 1   
   164  163  164 1   
   165  163  166 1   
   166  163  172 1   
   167  164  165 2   
   168  164  177 1   
   169  166  167 1   
   170  166  173 1   
   171  166  174 1   
   172  167  168 1   
   173  167  175 1   
   174  167  176 1   
   175  168  169 1   
   176  168  170 1   
   177  177  178 1   
   178  177  182 1   
   179  178  179 1   
   180  178  180 1   
   181  178  181 1   
   182  184  185 1   
   183  184  186 1   
   184  187  188 1   
   185  187  189 1   
   186  190  191 1   
   187  190  192 1   
@<TRIPOS>SUBSTRUCTURE
     1 MOL         1 TEMP              0 ****  ****    0 ROOT
