@<TRIPOS>MOLECULE
MOL
  192   187     1     0     0
SMALL
resp


@<TRIPOS>ATOM
      1 C1         -6.8940   -3.3310    4.0800 c3        1 MOL     -0.272514
      2 C2         -6.1640   -2.6630    2.9030 c         1 MOL      0.735703
      3 O1         -5.7770   -3.3630    1.9820 o         1 MOL     -0.579339
      4 H1         -6.5770   -2.8660    5.0130 hc        1 MOL      0.060855
      5 H2         -7.9690   -3.2050    3.9590 hc        1 MOL      0.060855
      6 H3         -6.6520   -4.3930    4.1030 hc        1 MOL      0.060855
      7 N1         -6.0390   -1.3410    2.9960 n         1 MOL     -0.529309
      8 C3         -5.4750   -0.4300    1.9110 c3        1 MOL      0.113686
      9 C4         -3.9890   -0.4240    1.8650 c         1 MOL     -0.023175
     10 O2         -3.3690    0.2510    1.0840 o         1 MOL     -0.165373
     11 C5         -6.1340    0.9650    2.1800 c3        1 MOL     -0.063180
     12 C6         -6.2960    1.3090    3.6790 c         1 MOL      0.729294
     13 O3         -5.3930    1.8540    4.2920 o         1 MOL     -0.717642
     14 O4         -7.4070    1.0660    4.1200 o         1 MOL     -0.717642
     15 H4         -6.5400   -0.8910    3.7480 hn        1 MOL      0.282504
     16 H5         -5.7370   -0.8180    0.9140 h1        1 MOL      0.085149
     17 H6         -7.0830    1.0970    1.6700 hc        1 MOL      0.018276
     18 H7         -5.5090    1.7820    1.8410 hc        1 MOL      0.018276
     19 N2         -3.3330   -1.2040    2.7980 n         1 MOL     -0.087158
     20 C7         -1.9300   -1.3230    2.8690 c3        1 MOL      0.025783
     21 C8         -1.4710   -2.5320    2.0100 c         1 MOL      0.465442
     22 O5         -2.1400   -3.5650    2.1020 o         1 MOL     -0.480221
     23 C9         -1.5420   -1.3920    4.3240 c3        1 MOL     -0.272730
     24 C10        -1.9880   -0.1940    5.2540 c3        1 MOL      0.329628
     25 C11        -1.5810   -0.4110    6.6660 c3        1 MOL     -0.163300
     26 C12        -1.6770    0.7990    7.5180 c3        1 MOL      0.089491
     27 N3         -0.5580    1.7550    7.4320 n4        1 MOL     -0.366523
     28 H8         -3.8950   -1.8530    3.3300 hn        1 MOL      0.197274
     29 H9         -1.5370   -0.4210    2.3980 h1        1 MOL      0.052498
     30 H10        -0.4610   -1.5110    4.4380 hc        1 MOL      0.076274
     31 H11        -2.0630   -2.2660    4.6900 hc        1 MOL      0.076274
     32 H12        -3.0480    0.0840    5.2650 hc        1 MOL     -0.062807
     33 H13        -1.4550    0.6520    4.8160 hc        1 MOL     -0.062807
     34 H14        -0.6110   -0.8950    6.7970 hc        1 MOL      0.060448
     35 H15        -2.2820   -1.1990    6.9410 hc        1 MOL      0.060448
     36 H16        -1.8890    0.5410    8.5600 hx        1 MOL      0.075503
     37 H17        -2.5010    1.4500    7.2400 hx        1 MOL      0.075503
     38 H18        -0.3880    2.0110    6.4650 hn        1 MOL      0.323790
     39 H19        -0.7630    2.6410    7.8680 hn        1 MOL      0.323790
     40 H20         0.3130    1.4230    7.8330 hn        1 MOL      0.323790
     41 N4         -0.3650   -2.5430    1.2360 n         1 MOL     -0.416452
     42 C13         0.5670   -1.5280    0.9520 c3        1 MOL      0.038211
     43 C14         1.2420   -0.8720    2.1630 c         1 MOL      0.651493
     44 O6          0.7910    0.1350    2.6510 o         1 MOL     -0.570638
     45 C15         0.0680   -0.5300   -0.1000 c3        1 MOL     -0.150970
     46 C16        -0.1980   -1.2120   -1.4080 c         1 MOL      0.643270
     47 O7          0.0260   -2.4310   -1.6450 o         1 MOL     -0.701474
     48 O8         -0.5130   -0.4510   -2.3500 o         1 MOL     -0.701474
     49 H21        -0.5110   -3.2430    0.5260 hn        1 MOL      0.183008
     50 H22         1.4000   -1.9810    0.4060 h1        1 MOL      0.013894
     51 H23         0.7370    0.3320   -0.1820 hc        1 MOL      0.076449
     52 H24        -0.8900   -0.1050    0.2060 hc        1 MOL      0.076449
     53 N5          2.4280   -1.4040    2.5560 n         1 MOL     -0.495982
     54 C17         3.3540   -2.4050    1.9960 c3        1 MOL      0.130920
     55 C18         4.5180   -2.9390    2.8760 c         1 MOL      0.512011
     56 O9          4.6920   -2.5880    4.0590 o         1 MOL     -0.536744
     57 H25         2.7740   -0.9010    3.3690 hn        1 MOL      0.264654
     58 H26         3.6690   -2.0450    1.0160 h1        1 MOL      0.041424
     59 H27         2.7210   -3.2710    1.8050 h1        1 MOL      0.041424
     60 N6          5.2980   -3.9680    2.5190 n         1 MOL     -0.568927
     61 C19         5.4720   -4.5160    1.1900 c3        1 MOL      0.350690
     62 C20         6.2410   -3.5130    0.2850 c         1 MOL      0.314146
     63 O10         6.9850   -2.6710    0.8210 o         1 MOL     -0.395823
     64 C21         6.1510   -5.8930    1.0560 c3        1 MOL     -0.157469
     65 C22         7.3500   -5.9660    1.9780 c         1 MOL      0.729879
     66 O11         8.5120   -5.7330    1.6230 o         1 MOL     -0.653035
     67 O12         7.1300   -6.1980    3.1690 o         1 MOL     -0.653035
     68 H28         5.9950   -4.2020    3.2150 hn        1 MOL      0.354875
     69 H29         4.4840   -4.5860    0.7200 h1        1 MOL     -0.102555
     70 H30         6.4360   -6.1330    0.0310 hc        1 MOL     -0.006635
     71 H31         5.4130   -6.6520    1.3270 hc        1 MOL     -0.006635
     72 N7          6.0640   -3.6910   -1.0500 n         1 MOL     -0.158453
     73 C23         6.8620   -3.0150   -2.0380 c3        1 MOL     -0.471240
     74 C24         6.4920   -1.5130   -2.1510 c         1 MOL      0.578689
     75 O13         7.3500   -0.6220   -2.3680 o         1 MOL     -0.570859
     76 H32         5.3310   -4.2440   -1.4680 hn        1 MOL      0.200060
     77 H33         6.5000   -3.5680   -2.9100 h1        1 MOL      0.195155
     78 H34         7.9160   -3.1180   -1.7900 h1        1 MOL      0.195155
     79 N8          5.2610   -1.1330   -2.0250 n         1 MOL     -0.390579
     80 C25         4.8040    0.2510   -2.3300 c3        1 MOL      0.146417
     81 C26         4.9880    1.1610   -1.1040 c         1 MOL      0.517273
     82 O14         4.4020    0.8310   -0.0600 o         1 MOL     -0.544599
     83 C27         3.3640    0.3670   -2.8260 c3        1 MOL      0.179181
     84 C28         3.0620   -0.2440   -4.2040 c3        1 MOL     -0.334202
     85 O15         3.1680    1.7390   -3.1670 oh        1 MOL     -0.640747
     86 H35         4.5900   -1.8580   -1.8190 hn        1 MOL      0.208481
     87 H36         5.5470    0.5390   -3.0710 h1        1 MOL      0.067883
     88 H37         2.6780   -0.0300   -2.0670 h1        1 MOL      0.112103
     89 H38         2.2610    1.9660   -3.3740 ho        1 MOL      0.442955
     90 H39         1.9720   -0.2550   -4.2810 hc        1 MOL      0.085384
     91 H40         3.3300    0.4220   -5.0260 hc        1 MOL      0.085384
     92 H41         3.4840   -1.2380   -4.3790 hc        1 MOL      0.085384
     93 N9          5.6950    2.2750   -1.2020 n         1 MOL     -0.245495
     94 C29         6.1100    3.1240   -0.0320 c3        1 MOL     -0.290781
     95 C30         5.0030    3.9880    0.6260 c         1 MOL      0.557964
     96 O16         5.2910    4.6970    1.5900 o         1 MOL     -0.553814
     97 C31         7.4070    3.9000   -0.2930 c3        1 MOL      0.098675
     98 C32         7.2030    4.9280   -1.4420 c3        1 MOL      0.070169
     99 C33         8.5790    3.0410   -0.6050 c3        1 MOL     -0.161890
    100 C34         8.4340    5.9200   -1.6370 c3        1 MOL     -0.317837
    101 H42         5.9780    2.4840   -2.1460 hn        1 MOL      0.204150
    102 H43         6.3750    2.4550    0.7910 h1        1 MOL      0.185630
    103 H44         7.5850    4.3960    0.6560 hc        1 MOL      0.038753
    104 H45         6.2640    5.4690   -1.3880 hc        1 MOL      0.016057
    105 H46         7.1240    4.3950   -2.3940 hc        1 MOL      0.016057
    106 H47         8.5680    2.1470    0.0160 hc        1 MOL      0.059753
    107 H48         8.6230    2.6230   -1.6150 hc        1 MOL      0.059753
    108 H49         9.5610    3.4990   -0.4840 hc        1 MOL      0.059753
    109 H50         8.8550    6.2740   -0.7050 hc        1 MOL      0.076614
    110 H51         9.1810    5.3850   -2.2310 hc        1 MOL      0.076614
    111 H52         8.0290    6.7020   -2.2800 hc        1 MOL      0.076614
    112 N10         3.7730    3.9610    0.0940 n         1 MOL     -0.273234
    113 C35         2.5840    4.6330    0.6790 c3        1 MOL     -0.109176
    114 C36         1.2420    4.0030    0.1870 c         1 MOL      0.629891
    115 O17         1.1990    3.3730   -0.8610 o         1 MOL     -0.475488
    116 C37         2.6570    6.1130    0.3760 c3        1 MOL      0.423438
    117 C38         1.4560    6.8650    0.9670 c3        1 MOL     -0.342283
    118 O18         2.7370    6.3040   -0.9690 oh        1 MOL     -0.618592
    119 H53         3.6550    3.4860   -0.7950 hn        1 MOL      0.151564
    120 H54         2.7250    4.5150    1.7530 h1        1 MOL      0.068982
    121 H55         3.6020    6.4230    0.8020 h1        1 MOL     -0.018073
    122 H56         3.5250    6.8210   -1.1330 ho        1 MOL      0.392655
    123 H57         1.4280    6.5720    2.0210 hc        1 MOL      0.076292
    124 H58         1.5850    7.9400    0.9560 hc        1 MOL      0.076292
    125 H59         0.5790    6.6200    0.3650 hc        1 MOL      0.076292
    126 N11         0.1960    4.0740    0.9980 n         1 MOL     -0.405848
    127 C39        -1.0350    3.2890    0.8620 c3        1 MOL      0.019460
    128 C40        -1.7900    3.4540   -0.4940 c         1 MOL      0.363163
    129 O19        -1.7190    4.4820   -1.2090 o         1 MOL     -0.525264
    130 C41        -2.0270    3.5940    2.0370 c3        1 MOL      0.279480
    131 C42        -2.3650    5.0820    2.1750 c3        1 MOL     -0.311313
    132 O20        -1.5070    3.1550    3.2490 oh        1 MOL     -0.610182
    133 H60         0.2840    4.5080    1.9120 hn        1 MOL      0.257027
    134 H61        -0.8390    2.2220    0.9500 h1        1 MOL      0.113915
    135 H62        -2.9750    3.1100    1.8010 h1        1 MOL      0.023079
    136 H63        -2.1160    3.3510    3.9630 ho        1 MOL      0.394018
    137 H64        -1.5150    5.7450    2.3380 hc        1 MOL      0.080671
    138 H65        -2.6950    5.4630    1.2160 hc        1 MOL      0.080671
    139 H66        -3.1380    5.2030    2.9340 hc        1 MOL      0.080671
    140 N12        -2.5390    2.3990   -0.8960 n         1 MOL     -0.170199
    141 C43        -3.5100    2.3130   -2.0060 c3        1 MOL     -0.095964
    142 C44        -3.9250    0.9400   -2.5480 c         1 MOL      0.650678
    143 O21        -3.9260    0.7750   -3.7460 o         1 MOL     -0.612663
    144 C45        -4.7790    2.9940   -1.5160 c3        1 MOL      0.162045
    145 C46        -5.9500    3.2400   -2.5060 c3        1 MOL     -0.131080
    146 C47        -5.6050    3.8790   -3.8870 c3        1 MOL     -0.011046
    147 C48        -4.7910    5.2090   -3.6030 c3        1 MOL      0.145669
    148 N13        -4.5390    6.0530   -4.8600 n4        1 MOL     -0.508720
    149 H67        -2.4910    1.6170   -0.2590 hn        1 MOL      0.087065
    150 H68        -3.0810    2.8140   -2.8740 h1        1 MOL      0.095939
    151 H69        -4.4750    3.9870   -1.1680 hc        1 MOL     -0.028772
    152 H70        -5.2360    2.5120   -0.6570 hc        1 MOL     -0.028772
    153 H71        -6.6200    3.8780   -1.9270 hc        1 MOL      0.054148
    154 H72        -6.4550    2.2990   -2.7360 hc        1 MOL      0.054148
    155 H73        -6.5410    4.1810   -4.3570 hc        1 MOL      0.010026
    156 H74        -5.0010    3.1790   -4.4690 hc        1 MOL      0.010026
    157 H75        -3.8230    4.9200   -3.2040 hx        1 MOL      0.060745
    158 H76        -5.3530    5.7360   -2.8320 hx        1 MOL      0.060745
    159 H77        -3.8610    6.7810   -4.7040 hn        1 MOL      0.359816
    160 H78        -4.2340    5.4170   -5.5760 hn        1 MOL      0.359816
    161 H79        -5.4080    6.5130   -5.1070 hn        1 MOL      0.359816
    162 N14        -4.2740    0.0120   -1.7100 n         1 MOL     -0.147484
    163 C49        -4.9160   -1.3400   -2.1210 c3        1 MOL     -0.344830
    164 C50        -6.4220   -1.4580   -2.0100 c         1 MOL      0.521357
    165 O22        -6.9760   -1.1960   -0.9900 o         1 MOL     -0.509965
    166 C51        -4.1670   -2.4450   -1.3220 c3        1 MOL      1.512593
    167 C52        -4.4130   -3.8970   -1.6350 c3        1 MOL     -0.700351
    168 C53        -4.3040   -4.2410   -3.1750 c         1 MOL      0.886421
    169 O23        -5.2870   -3.8660   -3.8990 o         1 MOL     -0.801133
    170 O24        -3.2000   -4.6890   -3.6400 o         1 MOL     -0.801133
    171 H80        -3.9800    0.0610   -0.7420 hn        1 MOL     -0.050080
    172 H81        -4.7250   -1.3920   -3.1880 h1        1 MOL      0.057677
    173 H82        -4.2500   -2.2590   -0.2500 hc        1 MOL     -0.349944
    174 H83        -3.1120   -2.3960   -1.6170 hc        1 MOL     -0.349944
    175 H84        -5.3860   -4.2140   -1.2820 hc        1 MOL      0.078106
    176 H85        -3.6390   -4.4840   -1.1330 hc        1 MOL      0.078106
    177 N15        -7.0910   -2.0190   -2.9690 n         1 MOL     -0.474071
    178 C54        -8.5460   -2.2160   -2.8500 c3        1 MOL     -0.186936
    179 H86        -8.9150   -2.7360   -3.7340 h1        1 MOL      0.101018
    180 H87        -8.7620   -2.8110   -1.9620 h1        1 MOL      0.101018
    181 H88        -9.0390   -1.2470   -2.7670 h1        1 MOL      0.101018
    182 H89        -6.5810   -2.4780   -3.7040 hn        1 MOL      0.453358
    183 Ca1        -0.6410   -4.2780   -3.2660 Ca        1 MOL      1.605925
    184 O25         1.4700   -3.3980   -4.4820 oh        1 MOL     -0.833831
    185 H90         1.3410   -2.7380   -5.1590 ho        1 MOL      0.410168
    186 H91         2.3600   -3.7280   -4.6440 ho        1 MOL      0.410168
    187 O26        -1.8790   -1.8810   -3.8890 oh        1 MOL     -0.833831
    188 H92        -1.5120   -1.1610   -3.3610 ho        1 MOL      0.410168
    189 H93        -2.1690   -1.4630   -4.6900 ho        1 MOL      0.410168
    190 O27        -1.0410   -4.7650   -5.9270 oh        1 MOL     -0.833831
    191 H94        -1.1320   -4.6080   -6.8690 ho        1 MOL      0.410168
    192 H95        -1.2660   -5.6850   -5.8250 ho        1 MOL      0.410168
@<TRIPOS>BOND
     1    1    2 1   
     2    1    4 1   
     3    1    5 1   
     4    1    6 1   
     5    2    3 2   
     6    2    7 1   
     7    7    8 1   
     8    7   15 1   
     9    8    9 1   
    10    8   11 1   
    11    8   16 1   
    12    9   10 2   
    13    9   19 1   
    14   11   12 1   
    15   11   17 1   
    16   11   18 1   
    17   12   13 1   
    18   12   14 1   
    19   19   20 1   
    20   19   28 1   
    21   20   21 1   
    22   20   23 1   
    23   20   29 1   
    24   21   22 2   
    25   21   41 1   
    26   23   24 1   
    27   23   30 1   
    28   23   31 1   
    29   24   25 1   
    30   24   32 1   
    31   24   33 1   
    32   25   26 1   
    33   25   34 1   
    34   25   35 1   
    35   26   27 1   
    36   26   36 1   
    37   26   37 1   
    38   27   38 1   
    39   27   39 1   
    40   27   40 1   
    41   41   42 1   
    42   41   49 1   
    43   42   43 1   
    44   42   45 1   
    45   42   50 1   
    46   43   44 2   
    47   43   53 1   
    48   45   46 1   
    49   45   51 1   
    50   45   52 1   
    51   46   47 1   
    52   46   48 1   
    53   53   54 1   
    54   53   57 1   
    55   54   55 1   
    56   54   58 1   
    57   54   59 1   
    58   55   56 2   
    59   55   60 1   
    60   60   61 1   
    61   60   68 1   
    62   61   62 1   
    63   61   64 1   
    64   61   69 1   
    65   62   63 2   
    66   62   72 1   
    67   64   65 1   
    68   64   70 1   
    69   64   71 1   
    70   65   66 1   
    71   65   67 1   
    72   72   73 1   
    73   72   76 1   
    74   73   74 1   
    75   73   77 1   
    76   73   78 1   
    77   74   75 2   
    78   74   79 1   
    79   79   80 1   
    80   79   86 1   
    81   80   81 1   
    82   80   83 1   
    83   80   87 1   
    84   81   82 2   
    85   81   93 1   
    86   83   84 1   
    87   83   85 1   
    88   83   88 1   
    89   84   90 1   
    90   84   91 1   
    91   84   92 1   
    92   85   89 1   
    93   93   94 1   
    94   93  101 1   
    95   94   95 1   
    96   94   97 1   
    97   94  102 1   
    98   95   96 2   
    99   95  112 1   
   100   97   98 1   
   101   97   99 1   
   102   97  103 1   
   103   98  100 1   
   104   98  104 1   
   105   98  105 1   
   106   99  106 1   
   107   99  107 1   
   108   99  108 1   
   109  100  109 1   
   110  100  110 1   
   111  100  111 1   
   112  112  113 1   
   113  112  119 1   
   114  113  114 1   
   115  113  116 1   
   116  113  120 1   
   117  114  115 2   
   118  114  126 1   
   119  116  117 1   
   120  116  118 1   
   121  116  121 1   
   122  117  123 1   
   123  117  124 1   
   124  117  125 1   
   125  118  122 1   
   126  126  127 1   
   127  126  133 1   
   128  127  128 1   
   129  127  130 1   
   130  127  134 1   
   131  128  129 2   
   132  128  140 1   
   133  130  131 1   
   134  130  132 1   
   135  130  135 1   
   136  131  137 1   
   137  131  138 1   
   138  131  139 1   
   139  132  136 1   
   140  140  141 1   
   141  140  149 1   
   142  141  142 1   
   143  141  144 1   
   144  141  150 1   
   145  142  143 2   
   146  142  162 1   
   147  144  145 1   
   148  144  151 1   
   149  144  152 1   
   150  145  146 1   
   151  145  153 1   
   152  145  154 1   
   153  146  147 1   
   154  146  155 1   
   155  146  156 1   
   156  147  148 1   
   157  147  157 1   
   158  147  158 1   
   159  148  159 1   
   160  148  160 1   
   161  148  161 1   
   162  162  163 1   
   163  162  171 1   
   164  163  164 1   
   165  163  166 1   
   166  163  172 1   
   167  164  165 2   
   168  164  177 1   
   169  166  167 1   
   170  166  173 1   
   171  166  174 1   
   172  167  168 1   
   173  167  175 1   
   174  167  176 1   
   175  168  169 1   
   176  168  170 1   
   177  177  178 1   
   178  177  182 1   
   179  178  179 1   
   180  178  180 1   
   181  178  181 1   
   182  184  185 1   
   183  184  186 1   
   184  187  188 1   
   185  187  189 1   
   186  190  191 1   
   187  190  192 1   
@<TRIPOS>SUBSTRUCTURE
     1 MOL         1 TEMP              0 ****  ****    0 ROOT
