@<TRIPOS>MOLECULE
MOL
  179   176     1     0     0
SMALL
resp


@<TRIPOS>ATOM
      1 C1          3.3020    0.9640    6.1440 c3        1 MOL     -0.348681
      2 C2          3.1350    1.2690    4.6450 c         1 MOL      0.727182
      3 O1          4.0140    1.0240    3.8310 o         1 MOL     -0.573293
      4 H1          2.5270    0.2660    6.4610 hc        1 MOL      0.098663
      5 H2          4.2820    0.5200    6.3190 hc        1 MOL      0.098663
      6 H3          3.2150    1.8880    6.7160 hc        1 MOL      0.098663
      7 N1          1.9520    1.8300    4.2170 n         1 MOL     -0.606955
      8 C3          1.4570    1.9390    2.8510 c3        1 MOL     -0.033591
      9 C4          1.8100    3.3210    2.2940 c         1 MOL      0.595990
     10 O2          1.4620    4.4220    2.8150 o         1 MOL     -0.540072
     11 C5         -0.0270    1.8320    2.9210 c3        1 MOL      0.058949
     12 C6         -0.7930    1.6200    1.5830 c         1 MOL      0.573302
     13 O3         -2.0100    1.5710    1.5580 o         1 MOL     -0.716085
     14 O4         -0.1420    1.7070    0.5180 o         1 MOL     -0.716085
     15 H4          1.3020    1.9950    4.9760 hn        1 MOL      0.309902
     16 H5          1.8850    1.1790    2.2050 h1        1 MOL      0.025611
     17 H6         -0.4080    2.6850    3.4730 hc        1 MOL      0.008079
     18 H7         -0.3150    0.9770    3.5300 hc        1 MOL      0.008079
     19 N2          2.7050    3.3470    1.2780 n         1 MOL     -0.337289
     20 C7          3.2710    4.5850    0.7030 c3        1 MOL     -0.111022
     21 C8          2.2570    5.2510   -0.2390 c         1 MOL      0.604154
     22 O5          2.3160    6.4240   -0.3990 o         1 MOL     -0.577869
     23 C9          4.5950    4.3840    0.0420 c3        1 MOL      0.021770
     24 C10         4.6290    4.0310   -1.4590 c3        1 MOL     -0.041229
     25 C11         6.0510    4.1550   -1.9540 c3        1 MOL     -0.179580
     26 C12         6.0740    3.5170   -3.3110 c3        1 MOL      0.378945
     27 N3          7.3740    3.5080   -3.9720 n4        1 MOL     -0.426981
     28 H8          3.0470    2.4610    0.9250 hn        1 MOL      0.296543
     29 H9          3.4900    5.2940    1.4950 h1        1 MOL      0.130541
     30 H10         5.0970    3.5770    0.5890 hc        1 MOL      0.033437
     31 H11         5.1480    5.3050    0.2230 hc        1 MOL      0.033437
     32 H12         3.9770    4.6790   -2.0510 hc        1 MOL      0.045241
     33 H13         4.3540    2.9780   -1.5390 hc        1 MOL      0.045241
     34 H14         6.6970    3.5370   -1.3230 hc        1 MOL      0.067458
     35 H15         6.2540    5.2200   -2.0090 hc        1 MOL      0.067458
     36 H16         5.4400    4.0130   -4.0420 hx        1 MOL     -0.028630
     37 H17         5.7050    2.5100   -3.1180 hx        1 MOL     -0.028630
     38 H18         7.7090    4.4050   -4.2900 hn        1 MOL      0.319148
     39 H19         8.0560    3.0540   -3.3870 hn        1 MOL      0.319148
     40 H20         7.3600    2.8370   -4.7270 hn        1 MOL      0.319148
     41 N4          1.2770    4.5600   -0.7100 n         1 MOL     -0.435739
     42 C13         0.0700    5.1830   -1.4060 c3        1 MOL     -0.013962
     43 C14        -1.0920    5.5180   -0.4540 c         1 MOL      0.482138
     44 O6         -1.8560    6.3640   -0.7830 o         1 MOL     -0.514230
     45 C15        -0.4080    4.3120   -2.6670 c3        1 MOL     -0.324271
     46 C16        -0.8240    2.8350   -2.4270 c         1 MOL      0.727634
     47 O7         -1.8090    2.6320   -1.7230 o         1 MOL     -0.720789
     48 O8         -0.1330    1.8440   -2.7080 o         1 MOL     -0.720789
     49 H21         1.2400    3.5930   -0.4250 hn        1 MOL      0.233791
     50 H22         0.5050    6.0630   -1.8660 h1        1 MOL      0.135258
     51 H23         0.2880    4.3400   -3.5120 hc        1 MOL      0.100273
     52 H24        -1.3160    4.8060   -3.0240 hc        1 MOL      0.100273
     53 N5         -1.1770    4.8360    0.6960 n         1 MOL     -0.041650
     54 C17        -2.3430    5.0610    1.5980 c3        1 MOL     -0.171906
     55 C18        -3.6670    4.5630    1.0690 c         1 MOL      0.601077
     56 O9         -4.6740    4.9240    1.6670 o         1 MOL     -0.589323
     57 H25        -0.5590    4.0740    0.9590 hn        1 MOL      0.024377
     58 H26        -2.4760    6.1230    1.7990 h1        1 MOL      0.102234
     59 H27        -2.2270    4.6720    2.6100 h1        1 MOL      0.102234
     60 N6         -3.7480    3.7840   -0.0040 n         1 MOL     -0.214115
     61 C19        -4.9710    3.5460   -0.7320 c3        1 MOL      0.063097
     62 C20        -5.1000    2.0270   -1.1450 c         1 MOL      0.567032
     63 O10        -4.2010    1.2450   -1.0290 o         1 MOL     -0.596814
     64 C21        -5.1380    4.5150   -1.9430 c3        1 MOL     -0.410430
     65 C22        -5.5780    5.9030   -1.5640 c         1 MOL      0.777452
     66 N7         -6.8140    6.1220   -1.1730 n         1 MOL     -0.829758
     67 O11        -4.8470    6.8620   -1.7100 o         1 MOL     -0.543342
     68 H28        -2.9190    3.4340   -0.4690 hn        1 MOL      0.250833
     69 H29        -5.8050    3.6810   -0.0480 h1        1 MOL     -0.002489
     70 H30        -5.9660    4.2300   -2.5820 hc        1 MOL      0.094686
     71 H31        -4.2470    4.6570   -2.5420 hc        1 MOL      0.094686
     72 H32        -7.4120    5.3360   -0.9750 hn        1 MOL      0.360342
     73 H33        -7.2410    7.0220   -1.0140 hn        1 MOL      0.360342
     74 N8         -6.2350    1.5590   -1.4840 n         1 MOL     -0.223764
     75 C23        -6.4990    0.1520   -1.8550 c3        1 MOL     -0.364907
     76 C24        -6.2150   -0.8310   -0.6630 c         1 MOL      0.598160
     77 O12        -6.5940   -0.6350    0.4940 o         1 MOL     -0.487557
     78 H34        -6.9790    2.2420   -1.4760 hn        1 MOL      0.240714
     79 H35        -5.8730   -0.1430   -2.6930 h1        1 MOL      0.148411
     80 H36        -7.5580    0.0980   -2.0920 h1        1 MOL      0.148411
     81 N9         -5.5340   -1.9260   -1.0560 n         1 MOL     -0.482922
     82 C25        -5.0310   -3.0090   -0.1960 c3        1 MOL      0.189736
     83 C26        -3.8360   -2.4170    0.6570 c         1 MOL      0.325848
     84 O13        -3.4420   -1.2660    0.4300 o         1 MOL     -0.364528
     85 C27        -4.6590   -4.3050   -0.9630 c3        1 MOL     -0.156770
     86 C28        -5.8330   -5.1320   -1.4290 ca        1 MOL      0.202471
     87 C29        -6.7070   -4.7000   -2.4470 ca        1 MOL     -0.285608
     88 C30        -6.1420   -6.3070   -0.6470 ca        1 MOL     -0.285608
     89 C31        -7.9050   -5.4200   -2.7480 ca        1 MOL     -0.168654
     90 C32        -7.3230   -7.0340   -0.9340 ca        1 MOL     -0.168654
     91 C33        -8.2150   -6.4980   -1.9160 ca        1 MOL      0.251265
     92 O14        -9.3710   -7.1270   -2.2350 oh        1 MOL     -0.438056
     93 H37        -5.2170   -1.8490   -2.0160 hn        1 MOL      0.265998
     94 H38        -5.8140   -3.3060    0.5000 h1        1 MOL      0.071228
     95 H39        -4.0760   -4.9370   -0.2930 hc        1 MOL      0.018539
     96 H40        -4.0290   -4.0460   -1.8100 hc        1 MOL      0.018539
     97 H41        -6.5180   -3.8220   -3.0420 ha        1 MOL      0.164690
     98 H42        -5.5290   -6.5580    0.2090 ha        1 MOL      0.164690
     99 H43        -8.7350   -5.0230   -3.3060 ha        1 MOL      0.146454
    100 H44        -7.6390   -7.8270   -0.2730 ha        1 MOL      0.146454
    101 H45        -9.4240   -7.9050   -1.6770 ho        1 MOL      0.347404
    102 N10        -3.2460   -3.1840    1.6630 n         1 MOL     -0.471690
    103 C34        -2.2600   -2.8000    2.6950 c3        1 MOL      0.067758
    104 C35        -0.9410   -2.2600    2.3180 c         1 MOL      0.280300
    105 O15        -0.9060   -1.5710    1.2600 o         1 MOL     -0.411082
    106 C36        -2.9250   -1.8100    3.6700 c3        1 MOL      0.206939
    107 C37        -2.0830   -1.5040    4.9480 c3        1 MOL     -0.383801
    108 C38        -4.4380   -2.0600    4.0550 c3        1 MOL     -0.094244
    109 C39        -1.9520   -2.4630    6.1180 c3        1 MOL     -0.032227
    110 H46        -3.6850   -4.0780    1.8340 hn        1 MOL      0.294578
    111 H47        -2.2500   -3.6550    3.3690 h1        1 MOL      0.044526
    112 H48        -2.9400   -0.8610    3.1220 hc        1 MOL      0.012203
    113 H49        -2.5170   -0.6760    5.5120 hc        1 MOL      0.136000
    114 H50        -1.1510   -1.0200    4.6420 hc        1 MOL      0.136000
    115 H51        -4.6240   -1.2060    4.7150 hc        1 MOL      0.034661
    116 H52        -5.1970   -2.1130    3.2650 hc        1 MOL      0.034661
    117 H53        -4.5440   -2.9210    4.7010 hc        1 MOL      0.034661
    118 H54        -1.6530   -3.4470    5.7720 hc        1 MOL      0.023118
    119 H55        -1.1350   -2.1450    6.7770 hc        1 MOL      0.023118
    120 H56        -2.8420   -2.6230    6.7350 hc        1 MOL      0.023118
    121 N11         0.1710   -2.5340    3.0330 n         1 MOL     -0.414479
    122 C40         1.4600   -1.9040    2.9050 c3        1 MOL     -0.003441
    123 C41         2.0630   -2.0920    1.5080 c         1 MOL      0.359345
    124 O16         2.9370   -1.3010    1.1480 o         1 MOL     -0.434950
    125 C42         2.4880   -2.4360    3.9410 c3        1 MOL      0.082090
    126 O17         2.0650   -2.4970    5.2570 oh        1 MOL     -0.588454
    127 H57         0.0310   -3.1740    3.7930 hn        1 MOL      0.266927
    128 H58         1.3760   -0.8480    3.1540 h1        1 MOL      0.231232
    129 H59         3.3530   -1.7720    3.9120 h1        1 MOL      0.087012
    130 H60         2.7700   -3.4470    3.6590 h1        1 MOL      0.087012
    131 H61         1.7350   -3.3880    5.4160 ho        1 MOL      0.404630
    132 N12         1.7110   -3.0780    0.6020 n         1 MOL     -0.416746
    133 C43         2.2070   -3.0570   -0.7770 c3        1 MOL     -0.034166
    134 C44         1.8780   -1.7280   -1.5510 c         1 MOL      0.514606
    135 O18         0.8180   -1.1470   -1.4080 o         1 MOL     -0.477691
    136 C45         1.7520   -4.2510   -1.5810 c3        1 MOL     -0.222285
    137 H62         1.0950   -3.8310    0.8870 hn        1 MOL      0.297568
    138 H63         3.2810   -3.1640   -0.6170 h1        1 MOL      0.163624
    139 H64         2.0410   -5.1770   -1.0730 hc        1 MOL      0.070552
    140 H65         0.6730   -4.3010   -1.7460 hc        1 MOL      0.070552
    141 H66         2.2550   -4.3010   -2.5380 hc        1 MOL      0.070552
    142 N13         2.7630   -1.0730   -2.2910 n         1 MOL     -0.464413
    143 C46         4.1780   -1.3740   -2.3280 c3        1 MOL      0.015454
    144 C47         4.7800   -2.6580   -3.1550 c         1 MOL      0.715131
    145 O19         4.3390   -2.8710   -4.3190 o         1 MOL     -0.598405
    146 C48         4.9280   -0.1060   -2.8290 c3        1 MOL     -0.218321
    147 H67         2.4480   -0.2720   -2.8240 hn        1 MOL      0.340675
    148 H68         4.4510   -1.5300   -1.2820 h1        1 MOL      0.140055
    149 H69         4.6250    0.7360   -2.2090 hc        1 MOL      0.064253
    150 H70         5.9840   -0.2310   -3.0710 hc        1 MOL      0.064253
    151 H71         4.5870    0.1130   -3.8420 hc        1 MOL      0.064253
    152 N14         5.6320   -3.4990   -2.5870 n         1 MOL     -0.749704
    153 C49         6.3290   -3.4140   -1.2180 c3        1 MOL     -0.080494
    154 C50         6.5660   -4.7810   -0.6230 c         1 MOL      0.604012
    155 O20         6.5300   -4.9130    0.5570 o         1 MOL     -0.532589
    156 C51         7.6360   -2.5280   -1.4230 c3        1 MOL      0.116689
    157 C52         7.9880   -2.1410    0.0040 c3        1 MOL     -0.257037
    158 C53         9.1060   -1.1910   -0.1500 c         1 MOL      0.676383
    159 O21        10.2040   -1.5750   -0.6970 o         1 MOL     -0.710408
    160 O22         8.9580    0.0020    0.3030 o         1 MOL     -0.710408
    161 H72         6.0480   -4.1790   -3.2150 hn        1 MOL      0.338168
    162 H73         5.6070   -2.9880   -0.5280 h1        1 MOL      0.065440
    163 H74         7.5020   -1.6500   -2.0420 hc        1 MOL      0.002023
    164 H75         8.4800   -3.1620   -1.6780 hc        1 MOL      0.002023
    165 H76         8.3720   -3.0090    0.5560 hc        1 MOL      0.080492
    166 H77         7.1630   -1.6260    0.4870 hc        1 MOL      0.080492
    167 N15         6.9360   -5.7750   -1.4630 n         1 MOL     -0.334322
    168 C54         7.0450   -7.1550   -0.9570 c3        1 MOL     -0.111988
    169 H78         6.1270   -7.6980   -1.1840 h1        1 MOL      0.077902
    170 H79         7.8880   -7.6530   -1.4370 h1        1 MOL      0.077902
    171 H80         7.1980   -7.1370    0.1220 h1        1 MOL      0.077902
    172 H81         7.0000   -5.6110   -2.4550 hn        1 MOL      0.271950
    173 Ca1        -1.7340    0.1180   -0.8250 Ca        1 MOL      1.734092
    174 O23        -1.6310   -2.7400   -1.2850 oh        1 MOL     -0.830841
    175 H82        -1.4760   -3.3580   -0.5730 ho        1 MOL      0.414809
    176 H83        -1.4940   -3.2480   -2.0800 ho        1 MOL      0.414809
    177 O24        -1.8670   -0.6250   -3.3540 oh        1 MOL     -0.830841
    178 H84        -1.1570   -0.8670   -3.9650 ho        1 MOL      0.414809
    179 H85        -2.5820   -1.2210   -3.5630 ho        1 MOL      0.414809
@<TRIPOS>BOND
     1    1    2 1   
     2    1    4 1   
     3    1    5 1   
     4    1    6 1   
     5    2    3 2   
     6    2    7 1   
     7    7    8 1   
     8    7   15 1   
     9    8    9 1   
    10    8   11 1   
    11    8   16 1   
    12    9   10 2   
    13    9   19 1   
    14   11   12 1   
    15   11   17 1   
    16   11   18 1   
    17   12   13 1   
    18   12   14 1   
    19   19   20 1   
    20   19   28 1   
    21   20   21 1   
    22   20   23 1   
    23   20   29 1   
    24   21   22 2   
    25   21   41 1   
    26   23   24 1   
    27   23   30 1   
    28   23   31 1   
    29   24   25 1   
    30   24   32 1   
    31   24   33 1   
    32   25   26 1   
    33   25   34 1   
    34   25   35 1   
    35   26   27 1   
    36   26   36 1   
    37   26   37 1   
    38   27   38 1   
    39   27   39 1   
    40   27   40 1   
    41   41   42 1   
    42   41   49 1   
    43   42   43 1   
    44   42   45 1   
    45   42   50 1   
    46   43   44 2   
    47   43   53 1   
    48   45   46 1   
    49   45   51 1   
    50   45   52 1   
    51   46   47 1   
    52   46   48 1   
    53   53   54 1   
    54   53   57 1   
    55   54   55 1   
    56   54   58 1   
    57   54   59 1   
    58   55   56 2   
    59   55   60 1   
    60   60   61 1   
    61   60   68 1   
    62   61   62 1   
    63   61   64 1   
    64   61   69 1   
    65   62   63 2   
    66   62   74 1   
    67   64   65 1   
    68   64   70 1   
    69   64   71 1   
    70   65   66 1   
    71   65   67 2   
    72   66   72 1   
    73   66   73 1   
    74   74   75 1   
    75   74   78 1   
    76   75   76 1   
    77   75   79 1   
    78   75   80 1   
    79   76   77 2   
    80   76   81 1   
    81   81   82 1   
    82   81   93 1   
    83   82   83 1   
    84   82   85 1   
    85   82   94 1   
    86   83   84 2   
    87   83  102 1   
    88   85   86 1   
    89   85   95 1   
    90   85   96 1   
    91   86   87 ar  
    92   86   88 ar  
    93   87   89 ar  
    94   87   97 1   
    95   88   90 ar  
    96   88   98 1   
    97   89   91 ar  
    98   89   99 1   
    99   90   91 ar  
   100   90  100 1   
   101   91   92 1   
   102   92  101 1   
   103  102  103 1   
   104  102  110 1   
   105  103  104 1   
   106  103  106 1   
   107  103  111 1   
   108  104  105 2   
   109  104  121 1   
   110  106  107 1   
   111  106  108 1   
   112  106  112 1   
   113  107  109 1   
   114  107  113 1   
   115  107  114 1   
   116  108  115 1   
   117  108  116 1   
   118  108  117 1   
   119  109  118 1   
   120  109  119 1   
   121  109  120 1   
   122  121  122 1   
   123  121  127 1   
   124  122  123 1   
   125  122  125 1   
   126  122  128 1   
   127  123  124 2   
   128  123  132 1   
   129  125  126 1   
   130  125  129 1   
   131  125  130 1   
   132  126  131 1   
   133  132  133 1   
   134  132  137 1   
   135  133  134 1   
   136  133  136 1   
   137  133  138 1   
   138  134  135 2   
   139  134  142 1   
   140  136  139 1   
   141  136  140 1   
   142  136  141 1   
   143  142  143 1   
   144  142  147 1   
   145  143  144 1   
   146  143  146 1   
   147  143  148 1   
   148  144  145 2   
   149  144  152 1   
   150  146  149 1   
   151  146  150 1   
   152  146  151 1   
   153  152  153 1   
   154  152  161 1   
   155  153  154 1   
   156  153  156 1   
   157  153  162 1   
   158  154  155 2   
   159  154  167 1   
   160  156  157 1   
   161  156  163 1   
   162  156  164 1   
   163  157  158 1   
   164  157  165 1   
   165  157  166 1   
   166  158  159 1   
   167  158  160 1   
   168  167  168 1   
   169  167  172 1   
   170  168  169 1   
   171  168  170 1   
   172  168  171 1   
   173  174  175 1   
   174  174  176 1   
   175  177  178 1   
   176  177  179 1   
@<TRIPOS>SUBSTRUCTURE
     1 MOL         1 TEMP              0 ****  ****    0 ROOT
