@<TRIPOS>MOLECULE
MOL
  178   175     1     0     0
SMALL
resp


@<TRIPOS>ATOM
      1 C1          2.0760   -2.1030    4.8510 c3        1 MOL     -0.242197
      2 C2          3.2840   -1.6870    3.9470 c         1 MOL      0.639988
      3 O1          3.2730   -0.6960    3.1320 o         1 MOL     -0.547140
      4 H1          1.1510   -1.7170    4.4220 hc        1 MOL      0.054131
      5 H2          2.0220   -3.1900    4.9090 hc        1 MOL      0.054131
      6 H3          2.2110   -1.6920    5.8510 hc        1 MOL      0.054131
      7 N1          4.3770   -2.4340    4.1670 n         1 MOL     -0.538148
      8 C3          5.6480   -1.9770    3.5520 c3        1 MOL      0.161179
      9 C4          5.8440   -2.5060    2.0580 c         1 MOL      0.445310
     10 O2          6.5510   -1.8400    1.3120 o         1 MOL     -0.490118
     11 C5          6.8330   -2.3390    4.4140 c3        1 MOL     -0.053735
     12 C6          8.1560   -1.6850    4.0680 c         1 MOL      0.728687
     13 O3          9.1170   -2.4340    3.7770 o         1 MOL     -0.735544
     14 O4          8.3050   -0.4740    4.2060 o         1 MOL     -0.735544
     15 H4          4.3670   -3.2880    4.6920 hn        1 MOL      0.293408
     16 H5          5.8100   -0.9030    3.6300 h1        1 MOL      0.041631
     17 H6          6.9600   -3.4060    4.2480 hc        1 MOL     -0.047685
     18 H7          6.6850   -2.2180    5.4910 hc        1 MOL     -0.047685
     19 N2          5.0820   -3.5470    1.6860 n         1 MOL     -0.383132
     20 C7          4.8230   -4.0800    0.3610 c3        1 MOL      0.082431
     21 C8          4.5680   -3.0750   -0.7930 c         1 MOL      0.607742
     22 O5          3.4110   -2.9890   -1.1650 o         1 MOL     -0.615004
     23 C9          5.9310   -5.1170   -0.0020 c3        1 MOL     -0.362656
     24 H8          4.4850   -3.9110    2.4190 hn        1 MOL      0.256365
     25 H9          3.8740   -4.6120    0.3300 h1        1 MOL      0.083320
     26 H10         5.8390   -6.0250    0.5990 hc        1 MOL      0.098247
     27 H11         5.8640   -5.4000   -1.0480 hc        1 MOL      0.098247
     28 H12         6.8960   -4.6500    0.1860 hc        1 MOL      0.098247
     29 N3          5.5690   -2.4330   -1.2600 n         1 MOL     -0.389033
     30 C10         5.5400   -1.5690   -2.4120 c3        1 MOL     -0.013047
     31 C11         5.9980   -0.0960   -2.2090 c         1 MOL      0.506474
     32 O6          6.0900    0.6860   -3.2130 o         1 MOL     -0.519162
     33 C12         6.3170   -2.3170   -3.5060 c3        1 MOL     -0.272069
     34 C13         5.5410   -3.5330   -4.1380 c         1 MOL      0.797754
     35 O7          4.6370   -3.3040   -4.9860 o         1 MOL     -0.728587
     36 O8          5.8120   -4.6870   -3.6910 o         1 MOL     -0.728587
     37 H13         6.4470   -2.5430   -0.7740 hn        1 MOL      0.310507
     38 H14         4.5140   -1.4940   -2.7580 h1        1 MOL      0.152259
     39 H15         7.2500   -2.6940   -3.0820 hc        1 MOL      0.036854
     40 H16         6.5650   -1.6220   -4.3100 hc        1 MOL      0.036854
     41 N4          6.3020    0.3140   -0.9370 n         1 MOL     -0.252968
     42 C14         6.4030    1.7450   -0.6060 c3        1 MOL     -0.039013
     43 C15         5.2630    2.5520   -1.1360 c         1 MOL      0.562499
     44 O9          5.5290    3.5610   -1.7400 o         1 MOL     -0.533612
     45 H17         6.3820   -0.3140   -0.1520 hn        1 MOL      0.193718
     46 H18         7.3300    2.1940   -0.9800 h1        1 MOL      0.068933
     47 H19         6.4370    1.8260    0.4850 h1        1 MOL      0.068933
     48 N5          4.0340    2.0640   -1.1560 n         1 MOL     -0.488312
     49 C16         2.9170    2.6580   -1.8540 c3        1 MOL     -0.004099
     50 C17         2.4650    4.0280   -1.3350 c         1 MOL      0.481648
     51 O10         2.8110    4.4480   -0.2450 o         1 MOL     -0.462138
     52 C18         1.6840    1.7070   -1.9210 c3        1 MOL     -0.123337
     53 C19         1.9700    0.4800   -2.7570 c         1 MOL      0.556610
     54 N6          2.1230    0.6460   -4.0370 n         1 MOL     -0.661577
     55 O11         1.9410   -0.6360   -2.2780 o         1 MOL     -0.673250
     56 H20         3.9110    1.1090   -0.8460 hn        1 MOL      0.304918
     57 H21         3.3150    2.8000   -2.8650 h1        1 MOL      0.082413
     58 H22         0.8590    2.2890   -2.3340 hc        1 MOL      0.106854
     59 H23         1.4210    1.3150   -0.9310 hc        1 MOL      0.106854
     60 H24         2.0890    1.5850   -4.4170 hn        1 MOL      0.326397
     61 H25         2.2640   -0.1660   -4.6170 hn        1 MOL      0.326397
     62 N7          2.1530    4.9150   -2.2670 n         1 MOL     -0.314351
     63 C20         2.1020    6.3970   -2.0860 c3        1 MOL     -0.189126
     64 C21         0.7320    6.8530   -1.7740 c         1 MOL      0.497919
     65 O12        -0.2210    6.3230   -2.4140 o         1 MOL     -0.503266
     66 H26         2.2990    4.6610   -3.2380 hn        1 MOL      0.250600
     67 H27         2.4770    6.9330   -2.9600 h1        1 MOL      0.117977
     68 H28         2.6650    6.6890   -1.1950 h1        1 MOL      0.117977
     69 N8          0.5280    7.7310   -0.7620 n         1 MOL     -0.343518
     70 C22        -0.7560    8.2400   -0.2320 c3        1 MOL     -0.362821
     71 C23        -1.6800    7.1400    0.4070 c         1 MOL      0.484854
     72 O13        -2.7710    7.3460    0.8910 o         1 MOL     -0.545698
     73 C24        -0.5750    9.5160    0.7060 c3        1 MOL      0.538593
     74 C25         0.0020    9.1840    2.1130 c3        1 MOL     -0.254657
     75 O14         0.3150   10.4420    0.0480 oh        1 MOL     -0.654406
     76 H29         1.3910    8.0960   -0.3770 hn        1 MOL      0.247633
     77 H30        -1.3530    8.6200   -1.0510 h1        1 MOL      0.178393
     78 H31        -1.5690    9.9050    0.9300 h1        1 MOL      0.010985
     79 H32         1.1400    9.9670   -0.0040 ho        1 MOL      0.389341
     80 H33         0.5260   10.0210    2.5630 hc        1 MOL      0.055577
     81 H34        -0.8640    8.9060    2.7120 hc        1 MOL      0.055577
     82 H35         0.6570    8.3230    1.9410 hc        1 MOL      0.055577
     83 N9         -1.2470    5.8540    0.3590 n         1 MOL     -0.069082
     84 C26        -1.8790    4.6710    0.9370 c3        1 MOL      0.057160
     85 C27        -1.8000    3.4290    0.1080 c         1 MOL      0.218328
     86 O15        -0.9490    3.3500   -0.8080 o         1 MOL     -0.412385
     87 C28        -1.3080    4.4090    2.3080 c3        1 MOL      0.224208
     88 C29         0.2750    4.3860    2.4510 c3        1 MOL      0.032418
     89 C30        -1.8340    5.4760    3.2090 c3        1 MOL     -0.281712
     90 C31         0.8890    3.7000    3.6940 c3        1 MOL     -0.378256
     91 H36        -0.4260    5.6120   -0.1800 hn        1 MOL      0.052021
     92 H37        -2.9490    4.9080    0.9770 h1        1 MOL      0.041333
     93 H38        -1.7280    3.4490    2.6190 hc        1 MOL     -0.041107
     94 H39         0.6660    5.4020    2.4470 hc        1 MOL      0.033175
     95 H40         0.7650    3.9450    1.5800 hc        1 MOL      0.033175
     96 H41        -2.9070    5.5300    3.0510 hc        1 MOL      0.048994
     97 H42        -1.5370    5.1120    4.2030 hc        1 MOL      0.048994
     98 H43        -1.3580    6.4230    2.9570 hc        1 MOL      0.048994
     99 H44         0.3930    3.9790    4.6260 hc        1 MOL      0.104653
    100 H45         0.8550    2.6450    3.4260 hc        1 MOL      0.104653
    101 H46         1.9160    4.0660    3.7510 hc        1 MOL      0.104653
    102 N10        -2.5190    2.4390    0.5190 n         1 MOL     -0.204179
    103 C32        -2.2390    1.0480    0.1130 c3        1 MOL      0.026745
    104 C33        -3.5050    0.1500    0.1240 c         1 MOL      0.504109
    105 O16        -3.4320   -0.9710    0.5990 o         1 MOL     -0.333628
    106 C34        -1.0300    0.4520    0.8530 c3        1 MOL     -0.505537
    107 C35        -0.4570   -0.8040    0.1410 c         1 MOL      0.945645
    108 O17         0.6140   -1.3500    0.5570 o         1 MOL     -0.783931
    109 O18        -0.9000   -1.2040   -0.9610 o         1 MOL     -0.783931
    110 H47        -3.2920    2.6730    1.1200 hn        1 MOL      0.214634
    111 H48        -2.0200    1.0690   -0.9590 h1        1 MOL      0.052387
    112 H49        -1.3770    0.1780    1.8500 hc        1 MOL      0.160275
    113 H50        -0.2740    1.2320    0.8190 hc        1 MOL      0.160275
    114 N11        -4.7020    0.6620   -0.2490 n         1 MOL     -0.473765
    115 C36        -5.9100   -0.1480   -0.7560 c3        1 MOL      0.327911
    116 C37        -6.2930   -1.3220    0.1270 c         1 MOL     -0.032121
    117 O19        -6.6320   -0.9420    1.2640 o         1 MOL     -0.418435
    118 C38        -7.0390    0.8370   -0.9050 c3        1 MOL     -0.265591
    119 C39        -8.3890    0.2410   -1.3830 ca        1 MOL      0.109604
    120 C40        -8.5820    0.1890   -2.7420 ca        1 MOL     -0.169595
    121 C41        -9.4090   -0.2290   -0.5050 ca        1 MOL     -0.169595
    122 C42        -9.6650   -0.4280   -3.3300 ca        1 MOL     -0.087231
    123 C43       -10.5850   -0.7260   -1.0730 ca        1 MOL     -0.087231
    124 C44       -10.6980   -0.8270   -2.4760 ca        1 MOL     -0.132927
    125 H51        -4.7430    1.6400   -0.4700 hn        1 MOL      0.242746
    126 H52        -5.6360   -0.4010   -1.7830 h1        1 MOL     -0.030809
    127 H53        -6.7750    1.6470   -1.5830 hc        1 MOL      0.104010
    128 H54        -7.1370    1.3450    0.0550 hc        1 MOL      0.104010
    129 H55        -7.7860    0.5700   -3.3830 ha        1 MOL      0.127947
    130 H56        -9.2900   -0.2000    0.5730 ha        1 MOL      0.127947
    131 H57        -9.7650   -0.5110   -4.3990 ha        1 MOL      0.104406
    132 H58       -11.4670   -0.8920   -0.4690 ha        1 MOL      0.104406
    133 H59       -11.6480   -1.1630   -2.8470 ha        1 MOL      0.097909
    134 N12        -6.5140   -2.5490   -0.3430 n         1 MOL      0.099368
    135 C45        -6.9650   -3.6970    0.4970 c3        1 MOL      0.218572
    136 C46        -6.0650   -3.8860    1.7430 c         1 MOL      0.202155
    137 O20        -6.3870   -4.6970    2.6070 o         1 MOL     -0.501356
    138 C47        -6.9460   -4.8870   -0.4510 c3        1 MOL     -0.015987
    139 C48        -7.3390   -4.2910   -1.7780 c3        1 MOL     -0.263370
    140 C49        -6.5630   -2.9670   -1.7960 c3        1 MOL      0.051595
    141 H60        -7.9510   -3.5540    0.9310 h1        1 MOL      0.025547
    142 H61        -5.9130   -5.2520   -0.4910 hc        1 MOL      0.033381
    143 H62        -7.6200   -5.6010    0.0240 hc        1 MOL      0.033381
    144 H63        -6.9330   -4.8550   -2.6140 hc        1 MOL      0.080692
    145 H64        -8.3880   -3.9980   -1.7800 hc        1 MOL      0.080692
    146 H65        -5.5440   -3.1720   -2.1050 h1        1 MOL      0.044796
    147 H66        -7.0920   -2.2580   -2.4420 h1        1 MOL      0.044796
    148 N13        -4.8280   -3.3260    1.7280 n         1 MOL     -0.086255
    149 C50        -3.6910   -3.6710    2.6860 c3        1 MOL     -0.130805
    150 C51        -3.7480   -2.7730    3.9000 c         1 MOL      0.507906
    151 O21        -3.4130   -3.1970    4.9430 o         1 MOL     -0.558906
    152 C52        -2.3640   -3.7000    1.9480 c3        1 MOL      0.058507
    153 C53        -2.3930   -4.5760    0.6680 c3        1 MOL     -0.042725
    154 C54        -1.1290   -4.4330   -0.1910 c         1 MOL      0.591409
    155 O22         0.0050   -4.4950    0.3120 o         1 MOL     -0.704766
    156 O23        -1.2970   -4.2400   -1.4450 o         1 MOL     -0.704766
    157 H67        -4.6270   -2.7250    0.9490 hn        1 MOL      0.095509
    158 H68        -3.8960   -4.6720    3.0530 h1        1 MOL      0.110389
    159 H69        -1.7940   -4.2590    2.6900 hc        1 MOL      0.009201
    160 H70        -2.1060   -2.6770    1.6880 hc        1 MOL      0.009201
    161 H71        -3.2730   -4.2830    0.0870 hc        1 MOL      0.007304
    162 H72        -2.5510   -5.5970    1.0360 hc        1 MOL      0.007304
    163 N14        -4.2420   -1.5830    3.7000 n         1 MOL     -0.105401
    164 C55        -4.4570   -0.5330    4.6550 c3        1 MOL     -0.276306
    165 H73        -5.4650   -0.6120    5.0610 h1        1 MOL      0.100385
    166 H74        -3.7320   -0.6230    5.4640 h1        1 MOL      0.100385
    167 H75        -4.3380    0.4340    4.1660 h1        1 MOL      0.100385
    168 H76        -4.4970   -1.3320    2.7550 hn        1 MOL      0.138926
    169 Ca1         0.8970   -2.8990   -1.7250 Ca        1 MOL      1.736603
    170 O24        -0.9280   -2.7760   -4.1190 oh        1 MOL     -0.817002
    171 H77        -0.4190   -2.5650   -4.8950 ho        1 MOL      0.396122
    172 H78        -1.6630   -2.1530   -4.1350 ho        1 MOL      0.396122
    173 O25         1.8960   -5.3870   -1.4470 oh        1 MOL     -0.817002
    174 H79         2.5090   -5.8290   -2.0260 ho        1 MOL      0.396122
    175 H80         1.7050   -6.0320   -0.7640 ho        1 MOL      0.396122
    176 O26         2.0600   -3.4990   -4.0670 oh        1 MOL     -0.817002
    177 H81         2.9730   -3.2380   -4.2170 ho        1 MOL      0.396122
    178 H82         1.7650   -3.8370   -4.9160 ho        1 MOL      0.396122
@<TRIPOS>BOND
     1    1    2 1   
     2    1    4 1   
     3    1    5 1   
     4    1    6 1   
     5    2    3 2   
     6    2    7 1   
     7    7    8 1   
     8    7   15 1   
     9    8    9 1   
    10    8   11 1   
    11    8   16 1   
    12    9   10 2   
    13    9   19 1   
    14   11   12 1   
    15   11   17 1   
    16   11   18 1   
    17   12   13 1   
    18   12   14 1   
    19   19   20 1   
    20   19   24 1   
    21   20   21 1   
    22   20   23 1   
    23   20   25 1   
    24   21   22 2   
    25   21   29 1   
    26   23   26 1   
    27   23   27 1   
    28   23   28 1   
    29   29   30 1   
    30   29   37 1   
    31   30   31 1   
    32   30   33 1   
    33   30   38 1   
    34   31   32 2   
    35   31   41 1   
    36   33   34 1   
    37   33   39 1   
    38   33   40 1   
    39   34   35 1   
    40   34   36 1   
    41   41   42 1   
    42   41   45 1   
    43   42   43 1   
    44   42   46 1   
    45   42   47 1   
    46   43   44 2   
    47   43   48 1   
    48   48   49 1   
    49   48   56 1   
    50   49   50 1   
    51   49   52 1   
    52   49   57 1   
    53   50   51 2   
    54   50   62 1   
    55   52   53 1   
    56   52   58 1   
    57   52   59 1   
    58   53   54 1   
    59   53   55 2   
    60   54   60 1   
    61   54   61 1   
    62   62   63 1   
    63   62   66 1   
    64   63   64 1   
    65   63   67 1   
    66   63   68 1   
    67   64   65 2   
    68   64   69 1   
    69   69   70 1   
    70   69   76 1   
    71   70   71 1   
    72   70   73 1   
    73   70   77 1   
    74   71   72 2   
    75   71   83 1   
    76   73   74 1   
    77   73   75 1   
    78   73   78 1   
    79   74   80 1   
    80   74   81 1   
    81   74   82 1   
    82   75   79 1   
    83   83   84 1   
    84   83   91 1   
    85   84   85 1   
    86   84   87 1   
    87   84   92 1   
    88   85   86 2   
    89   85  102 1   
    90   87   88 1   
    91   87   89 1   
    92   87   93 1   
    93   88   90 1   
    94   88   94 1   
    95   88   95 1   
    96   89   96 1   
    97   89   97 1   
    98   89   98 1   
    99   90   99 1   
   100   90  100 1   
   101   90  101 1   
   102  102  103 1   
   103  102  110 1   
   104  103  104 1   
   105  103  106 1   
   106  103  111 1   
   107  104  105 2   
   108  104  114 1   
   109  106  107 1   
   110  106  112 1   
   111  106  113 1   
   112  107  108 1   
   113  107  109 1   
   114  114  115 1   
   115  114  125 1   
   116  115  116 1   
   117  115  118 1   
   118  115  126 1   
   119  116  117 2   
   120  116  134 1   
   121  118  119 1   
   122  118  127 1   
   123  118  128 1   
   124  119  120 ar  
   125  119  121 ar  
   126  120  122 ar  
   127  120  129 1   
   128  121  123 ar  
   129  121  130 1   
   130  122  124 ar  
   131  122  131 1   
   132  123  124 ar  
   133  123  132 1   
   134  124  133 1   
   135  134  135 1   
   136  134  140 1   
   137  135  136 1   
   138  135  138 1   
   139  135  141 1   
   140  136  137 2   
   141  136  148 1   
   142  138  139 1   
   143  138  142 1   
   144  138  143 1   
   145  139  140 1   
   146  139  144 1   
   147  139  145 1   
   148  140  146 1   
   149  140  147 1   
   150  148  149 1   
   151  148  157 1   
   152  149  150 1   
   153  149  152 1   
   154  149  158 1   
   155  150  151 2   
   156  150  163 1   
   157  152  153 1   
   158  152  159 1   
   159  152  160 1   
   160  153  154 1   
   161  153  161 1   
   162  153  162 1   
   163  154  155 1   
   164  154  156 1   
   165  163  164 1   
   166  163  168 1   
   167  164  165 1   
   168  164  166 1   
   169  164  167 1   
   170  170  171 1   
   171  170  172 1   
   172  173  174 1   
   173  173  175 1   
   174  176  177 1   
   175  176  178 1   
@<TRIPOS>SUBSTRUCTURE
     1 MOL         1 TEMP              0 ****  ****    0 ROOT
