@<TRIPOS>MOLECULE
MOL
  181   177     1     0     0
SMALL
resp


@<TRIPOS>ATOM
      1 C1          4.7850   -6.6270    4.4360 c3        1 MOL     -0.242497
      2 C2          4.6970   -5.1910    3.9970 c         1 MOL      0.665335
      3 O1          4.0430   -4.3930    4.6650 o         1 MOL     -0.574341
      4 H1          3.9740   -7.1960    3.9820 hc        1 MOL      0.052951
      5 H2          5.7420   -7.0450    4.1230 hc        1 MOL      0.052951
      6 H3          4.7030   -6.6810    5.5220 hc        1 MOL      0.052951
      7 N1          5.2480   -4.7600    2.8440 n         1 MOL     -0.424930
      8 C3          6.0600   -5.4470    1.8730 c3        1 MOL      0.023346
      9 C4          5.3930   -5.6750    0.4970 c         1 MOL      0.426178
     10 O2          4.2120   -5.5890    0.3210 o         1 MOL     -0.403282
     11 C5          7.4250   -4.8490    1.7460 c3        1 MOL      0.005476
     12 C6          7.3920   -3.4090    1.3720 c         1 MOL      0.492471
     13 O3          7.4040   -3.1050    0.1830 o         1 MOL     -0.676056
     14 O4          7.4500   -2.5010    2.2450 o         1 MOL     -0.676056
     15 H4          4.9890   -3.8390    2.5150 hn        1 MOL      0.294906
     16 H5          6.2690   -6.3740    2.4010 h1        1 MOL      0.062188
     17 H6          7.8800   -5.5440    1.0310 hc        1 MOL     -0.018024
     18 H7          7.9670   -4.8930    2.6940 hc        1 MOL     -0.018024
     19 N2          6.1530   -6.0230   -0.5830 n         1 MOL     -0.578179
     20 C7          5.6320   -6.0920   -1.9660 c3        1 MOL      0.508000
     21 C8          4.8760   -4.7500   -2.4170 c         1 MOL      0.139799
     22 O5          4.0310   -4.8250   -3.3260 o         1 MOL     -0.527148
     23 C9          4.9480   -7.4040   -2.1240 c3        1 MOL     -0.371604
     24 H8          7.1230   -6.2790   -0.4650 hn        1 MOL      0.304271
     25 H9          6.5230   -6.1310   -2.5930 h1        1 MOL     -0.049015
     26 H10         5.5770   -8.2100   -1.7410 hc        1 MOL      0.089561
     27 H11         3.9840   -7.3740   -1.6250 hc        1 MOL      0.089561
     28 H12         4.7920   -7.5450   -3.1950 hc        1 MOL      0.089561
     29 N3          5.0560   -3.6020   -1.8250 n         1 MOL      0.198181
     30 C10         4.4030   -2.3070   -2.1260 c3        1 MOL     -0.068331
     31 C11         5.5930   -1.3340   -2.4530 c         1 MOL      0.218711
     32 O6          6.6510   -1.4370   -1.8860 o         1 MOL     -0.466262
     33 C12         3.5600   -1.8680   -1.0240 c3        1 MOL      0.115137
     34 C13         4.2350   -1.8420    0.2260 c         1 MOL      0.659438
     35 O7          4.9940   -0.8960    0.5280 o         1 MOL     -0.659487
     36 O8          3.9660   -2.7280    1.0680 o         1 MOL     -0.659487
     37 H13         5.7080   -3.6510   -1.0510 hn        1 MOL     -0.049338
     38 H14         3.7960   -2.3570   -3.0460 h1        1 MOL      0.055802
     39 H15         2.6820   -2.4850   -0.8220 hc        1 MOL     -0.017580
     40 H16         3.2140   -0.8400   -1.1330 hc        1 MOL     -0.017580
     41 N4          5.3500   -0.4040   -3.3480 n         1 MOL     -0.088692
     42 C14         6.1550    0.7880   -3.5560 c3        1 MOL     -0.380745
     43 C15         6.2030    1.7960   -2.3900 c         1 MOL      0.627868
     44 O9          6.3240    1.4710   -1.2200 o         1 MOL     -0.563643
     45 H17         4.4880   -0.4930   -3.8760 hn        1 MOL      0.234933
     46 H18         5.7930    1.3220   -4.4270 h1        1 MOL      0.143156
     47 H19         7.1280    0.4070   -3.8840 h1        1 MOL      0.143156
     48 N5          6.3120    3.1200   -2.7470 n         1 MOL     -0.484956
     49 C16         6.2530    4.1140   -1.7050 c3        1 MOL     -0.112116
     50 C17         4.8810    4.0170   -0.9340 c         1 MOL      0.658558
     51 O10         3.8510    3.6250   -1.5190 o         1 MOL     -0.494230
     52 C18         6.3590    5.5400   -2.4190 c3        1 MOL     -0.378887
     53 C19         7.6330    5.7410   -3.2180 c         1 MOL      0.769947
     54 N6          7.6120    5.9010   -4.5340 n         1 MOL     -0.827549
     55 O11         8.7330    5.7350   -2.6630 o         1 MOL     -0.596353
     56 H20         6.2800    3.3550   -3.7330 hn        1 MOL      0.298058
     57 H21         7.0090    4.0930   -0.9220 h1        1 MOL      0.165311
     58 H22         6.1570    6.3290   -1.7020 hc        1 MOL      0.123006
     59 H23         5.5580    5.6430   -3.1400 hc        1 MOL      0.123006
     60 H24         6.7220    5.7940   -5.0140 hn        1 MOL      0.377765
     61 H25         8.5080    6.1160   -4.9610 hn        1 MOL      0.377765
     62 N7          4.8430    4.3370    0.3700 n         1 MOL     -0.395201
     63 C20         3.5820    4.5700    1.0160 c3        1 MOL     -0.029730
     64 C21         2.9110    5.9210    0.6850 c         1 MOL      0.547629
     65 O12         3.4760    6.8060    0.0270 o         1 MOL     -0.551167
     66 H26         5.7250    4.5830    0.7750 hn        1 MOL      0.267992
     67 H27         3.7750    4.5480    2.0830 h1        1 MOL      0.089582
     68 H28         2.8790    3.8150    0.6500 h1        1 MOL      0.089582
     69 N8          1.6360    6.1330    1.1560 n         1 MOL     -0.431903
     70 C22         0.6990    5.3250    2.0290 c3        1 MOL     -0.080230
     71 C23        -0.3790    4.5910    1.2920 c         1 MOL      0.513088
     72 O13        -1.0090    5.1910    0.3910 o         1 MOL     -0.557106
     73 C24         0.2120    6.1260    3.2370 c3        1 MOL      0.405711
     74 C25        -0.5290    5.3760    4.2920 c3        1 MOL     -0.276174
     75 O14         1.3800    6.7640    3.8170 oh        1 MOL     -0.613601
     76 H29         1.1770    6.9880    0.8950 hn        1 MOL      0.297603
     77 H30         1.3340    4.6200    2.5820 h1        1 MOL      0.016294
     78 H31        -0.3690    6.9460    2.8190 h1        1 MOL     -0.001673
     79 H32         2.0910    6.5610    3.2000 ho        1 MOL      0.313092
     80 H33         0.0490    4.5000    4.6010 hc        1 MOL      0.084777
     81 H34        -0.6870    6.0860    5.1040 hc        1 MOL      0.084777
     82 H35        -1.4810    5.0650    3.8560 hc        1 MOL      0.084777
     83 N9         -0.6570    3.3050    1.5910 n         1 MOL     -0.133892
     84 C26        -1.8290    2.5470    1.1640 c3        1 MOL     -0.241589
     85 C27        -2.6860    2.0540    2.3590 c         1 MOL      0.629822
     86 O15        -2.1950    1.9010    3.4430 o         1 MOL     -0.589852
     87 C28        -1.3380    1.3860    0.2210 c3        1 MOL      0.204371
     88 C29        -0.6100    0.2770    0.9480 c3        1 MOL     -0.361037
     89 C30        -0.6570    2.0410   -1.0060 c3        1 MOL     -0.547568
     90 C31        -0.0660   -0.8800    0.1280 c3        1 MOL      0.047393
     91 H36         0.0410    2.8310    2.1460 hn        1 MOL      0.163098
     92 H37        -2.4720    3.2290    0.6140 h1        1 MOL      0.166026
     93 H38        -2.2340    0.9510   -0.2320 hc        1 MOL      0.045767
     94 H39        -1.2840   -0.2030    1.6540 hc        1 MOL      0.115800
     95 H40         0.2100    0.6460    1.5700 hc        1 MOL      0.115800
     96 H41         0.3740    2.2230   -0.7020 hc        1 MOL      0.142399
     97 H42        -0.8290    1.3040   -1.7900 hc        1 MOL      0.142399
     98 H43        -1.1830    2.9070   -1.4120 hc        1 MOL      0.142399
     99 H44         0.8020   -0.4630   -0.3840 hc        1 MOL      0.018578
    100 H45         0.2130   -1.7320    0.7350 hc        1 MOL      0.018578
    101 H46        -0.8060   -0.9760   -0.6680 hc        1 MOL      0.018578
    102 N10        -3.9870    1.7680    2.2120 n         1 MOL     -0.574775
    103 C32        -4.7850    2.1810    0.9870 c3        1 MOL      0.117438
    104 C33        -6.0520    1.4050    0.8060 c         1 MOL      0.427538
    105 O16        -6.4700    0.7610    1.7430 o         1 MOL     -0.454406
    106 C34        -5.1770    3.6340    1.0970 c3        1 MOL     -0.102937
    107 C35        -5.8920    3.9240    2.4550 c         1 MOL      0.637352
    108 O17        -7.0700    3.5800    2.5360 o         1 MOL     -0.642251
    109 O18        -5.3440    4.4400    3.4480 o         1 MOL     -0.642251
    110 H47        -4.4640    1.4160    3.0230 hn        1 MOL      0.381442
    111 H48        -4.2280    2.1150    0.0530 h1        1 MOL      0.051237
    112 H49        -5.7650    3.9650    0.2360 hc        1 MOL     -0.009755
    113 H50        -4.3130    4.2860    0.9570 hc        1 MOL     -0.009755
    114 N11        -6.6240    1.4160   -0.4000 n         1 MOL     -0.455698
    115 C36        -7.9150    0.8760   -0.7980 c3        1 MOL      0.333136
    116 C37        -7.7430    0.0310   -2.1130 c         1 MOL      0.180982
    117 O19        -7.1840    0.4780   -3.1470 o         1 MOL     -0.494135
    118 C38        -8.9930    2.0150   -0.9080 c3        1 MOL     -0.150339
    119 C39       -10.4390    1.5510   -1.1900 ca        1 MOL      0.140376
    120 C40       -10.9020    1.4800   -2.5290 ca        1 MOL     -0.223976
    121 C41       -11.3960    1.2280   -0.1420 ca        1 MOL     -0.223976
    122 C42       -12.2230    1.1260   -2.8540 ca        1 MOL     -0.117581
    123 C43       -12.6700    0.7350   -0.4600 ca        1 MOL     -0.117581
    124 C44       -13.0780    0.7000   -1.8350 ca        1 MOL     -0.087541
    125 H51        -6.1920    2.0040   -1.0910 hn        1 MOL      0.286741
    126 H52        -8.3120    0.2180   -0.0270 h1        1 MOL     -0.007798
    127 H53        -8.6890    2.6940   -1.7150 hc        1 MOL      0.049725
    128 H54        -9.0140    2.6470   -0.0180 hc        1 MOL      0.049725
    129 H55       -10.1460    1.5180   -3.2910 ha        1 MOL      0.153230
    130 H56       -11.0450    1.2860    0.8810 ha        1 MOL      0.153230
    131 H57       -12.6090    1.0700   -3.8660 ha        1 MOL      0.103590
    132 H58       -13.3720    0.4180    0.2990 ha        1 MOL      0.103590
    133 H59       -14.0860    0.3890   -2.0800 ha        1 MOL      0.072934
    134 N12        -8.4100   -1.1560   -2.1620 n         1 MOL      0.114141
    135 C45        -9.2280   -1.8650   -1.1950 c3        1 MOL      0.358890
    136 C46        -8.4880   -2.4370   -0.0080 c         1 MOL      0.317313
    137 O20        -8.9870   -2.3820    1.0920 o         1 MOL     -0.585179
    138 C47        -9.8730   -2.9910   -2.0140 c3        1 MOL     -0.284266
    139 C48        -9.9440   -2.2850   -3.3990 c3        1 MOL     -0.004328
    140 C49        -8.5530   -1.7110   -3.4630 c3        1 MOL      0.006534
    141 H60       -10.0470   -1.2100   -0.8770 h1        1 MOL     -0.015510
    142 H61        -9.1980   -3.8350   -2.1960 hc        1 MOL      0.087953
    143 H62       -10.8470   -3.1570   -1.5690 hc        1 MOL      0.087953
    144 H63       -10.0410   -2.9040   -4.2860 hc        1 MOL     -0.024958
    145 H64       -10.7150   -1.5080   -3.3450 hc        1 MOL     -0.024958
    146 H65        -7.8200   -2.4740   -3.7070 h1        1 MOL      0.033658
    147 H66        -8.6230   -0.8910   -4.1880 h1        1 MOL      0.033658
    148 N13        -7.2340   -2.7870   -0.1880 n         1 MOL     -0.188345
    149 C50        -6.4900   -3.4450    0.8060 c3        1 MOL      0.209430
    150 C51        -7.2130   -4.7480    1.2140 c         1 MOL      0.343321
    151 O21        -7.2480   -5.7150    0.4640 o         1 MOL     -0.563545
    152 C52        -5.0620   -3.7410    0.3260 c3        1 MOL     -0.031420
    153 C53        -4.2120   -2.4880   -0.0340 c3        1 MOL     -0.090164
    154 C54        -4.3490   -2.0590   -1.5540 c         1 MOL      0.666794
    155 O22        -3.4660   -1.3660   -2.0270 o         1 MOL     -0.657266
    156 O23        -5.3460   -2.3620   -2.2500 o         1 MOL     -0.657266
    157 H67        -6.8170   -2.7160   -1.1120 hn        1 MOL      0.086462
    158 H68        -6.4380   -2.8140    1.6890 h1        1 MOL      0.031232
    159 H69        -5.0300   -4.3410   -0.5900 hc        1 MOL      0.011862
    160 H70        -4.6150   -4.3480    1.1170 hc        1 MOL      0.011862
    161 H71        -3.1750   -2.6430    0.2550 hc        1 MOL     -0.006542
    162 H72        -4.5970   -1.6950    0.6220 hc        1 MOL     -0.006542
    163 N14        -7.8800   -4.8890    2.4180 n         1 MOL     -0.230764
    164 C55        -7.9740   -3.9950    3.5080 c3        1 MOL     -0.189975
    165 H73        -7.7390   -2.9860    3.1700 h1        1 MOL      0.078797
    166 H74        -8.9870   -4.0160    3.9100 h1        1 MOL      0.078797
    167 H75        -7.2680   -4.2910    4.2840 h1        1 MOL      0.078797
    168 H76        -8.3940   -5.7490    2.4980 hn        1 MOL      0.226426
    169 Ca1         7.5680   -0.5050    0.3560 Ca        1 MOL      1.738511
    170 O24         6.5350    1.0920    2.3700 oh        1 MOL     -0.809378
    171 H77         5.6590    1.2310    2.7380 ho        1 MOL      0.387317
    172 H78         7.0930    0.9450    3.1330 ho        1 MOL      0.387317
    173 O25         9.7150   -0.3410    1.8130 oh        1 MOL     -0.809378
    174 H79         9.8420   -0.2390    2.7610 ho        1 MOL      0.387317
    175 H80        10.4660   -0.8700    1.5330 ho        1 MOL      0.387317
    176 O26         9.4030   -0.5460   -1.3980 oh        1 MOL     -0.809378
    177 H81        10.3120   -0.2380   -1.4130 ho        1 MOL      0.387317
    178 H82         9.1800   -0.6790   -2.3200 ho        1 MOL      0.387317
    179 O27         9.0160    1.8800   -0.0080 oh        1 MOL     -0.809378
    180 H83         9.2370    2.7960   -0.1640 ho        1 MOL      0.387317
    181 H84         9.8550    1.4140   -0.0730 ho        1 MOL      0.387317
@<TRIPOS>BOND
     1    1    2 1   
     2    1    4 1   
     3    1    5 1   
     4    1    6 1   
     5    2    3 2   
     6    2    7 1   
     7    7    8 1   
     8    7   15 1   
     9    8    9 1   
    10    8   11 1   
    11    8   16 1   
    12    9   10 2   
    13    9   19 1   
    14   11   12 1   
    15   11   17 1   
    16   11   18 1   
    17   12   13 1   
    18   12   14 1   
    19   19   20 1   
    20   19   24 1   
    21   20   21 1   
    22   20   23 1   
    23   20   25 1   
    24   21   22 2   
    25   21   29 1   
    26   23   26 1   
    27   23   27 1   
    28   23   28 1   
    29   29   30 1   
    30   29   37 1   
    31   30   31 1   
    32   30   33 1   
    33   30   38 1   
    34   31   32 2   
    35   31   41 1   
    36   33   34 1   
    37   33   39 1   
    38   33   40 1   
    39   34   35 1   
    40   34   36 1   
    41   41   42 1   
    42   41   45 1   
    43   42   43 1   
    44   42   46 1   
    45   42   47 1   
    46   43   44 2   
    47   43   48 1   
    48   48   49 1   
    49   48   56 1   
    50   49   50 1   
    51   49   52 1   
    52   49   57 1   
    53   50   51 2   
    54   50   62 1   
    55   52   53 1   
    56   52   58 1   
    57   52   59 1   
    58   53   54 1   
    59   53   55 2   
    60   54   60 1   
    61   54   61 1   
    62   62   63 1   
    63   62   66 1   
    64   63   64 1   
    65   63   67 1   
    66   63   68 1   
    67   64   65 2   
    68   64   69 1   
    69   69   70 1   
    70   69   76 1   
    71   70   71 1   
    72   70   73 1   
    73   70   77 1   
    74   71   72 2   
    75   71   83 1   
    76   73   74 1   
    77   73   75 1   
    78   73   78 1   
    79   74   80 1   
    80   74   81 1   
    81   74   82 1   
    82   75   79 1   
    83   83   84 1   
    84   83   91 1   
    85   84   85 1   
    86   84   87 1   
    87   84   92 1   
    88   85   86 2   
    89   85  102 1   
    90   87   88 1   
    91   87   89 1   
    92   87   93 1   
    93   88   90 1   
    94   88   94 1   
    95   88   95 1   
    96   89   96 1   
    97   89   97 1   
    98   89   98 1   
    99   90   99 1   
   100   90  100 1   
   101   90  101 1   
   102  102  103 1   
   103  102  110 1   
   104  103  104 1   
   105  103  106 1   
   106  103  111 1   
   107  104  105 2   
   108  104  114 1   
   109  106  107 1   
   110  106  112 1   
   111  106  113 1   
   112  107  108 1   
   113  107  109 1   
   114  114  115 1   
   115  114  125 1   
   116  115  116 1   
   117  115  118 1   
   118  115  126 1   
   119  116  117 2   
   120  116  134 1   
   121  118  119 1   
   122  118  127 1   
   123  118  128 1   
   124  119  120 ar  
   125  119  121 ar  
   126  120  122 ar  
   127  120  129 1   
   128  121  123 ar  
   129  121  130 1   
   130  122  124 ar  
   131  122  131 1   
   132  123  124 ar  
   133  123  132 1   
   134  124  133 1   
   135  134  135 1   
   136  134  140 1   
   137  135  136 1   
   138  135  138 1   
   139  135  141 1   
   140  136  137 2   
   141  136  148 1   
   142  138  139 1   
   143  138  142 1   
   144  138  143 1   
   145  139  140 1   
   146  139  144 1   
   147  139  145 1   
   148  140  146 1   
   149  140  147 1   
   150  148  149 1   
   151  148  157 1   
   152  149  150 1   
   153  149  152 1   
   154  149  158 1   
   155  150  151 2   
   156  150  163 1   
   157  152  153 1   
   158  152  159 1   
   159  152  160 1   
   160  153  154 1   
   161  153  161 1   
   162  153  162 1   
   163  154  155 1   
   164  154  156 1   
   165  163  164 1   
   166  163  168 1   
   167  164  165 1   
   168  164  166 1   
   169  164  167 1   
   170  170  171 1   
   171  170  172 1   
   172  173  174 1   
   173  173  175 1   
   174  176  177 1   
   175  176  178 1   
   176  179  180 1   
   177  179  181 1   
@<TRIPOS>SUBSTRUCTURE
     1 MOL         1 TEMP              0 ****  ****    0 ROOT
