@<TRIPOS>MOLECULE
MOL
  192   187     1     0     0
SMALL
resp


@<TRIPOS>ATOM
      1 C1          0.7160   -5.4360    3.2050 c3        1 MOL     -0.310496
      2 C2          1.2940   -4.7940    1.9060 c         1 MOL      0.556575
      3 O1          1.7850   -3.6110    2.0330 o         1 MOL     -0.566137
      4 H1         -0.3120   -5.7520    3.0260 hc        1 MOL      0.076315
      5 H2          1.3190   -6.3000    3.4840 hc        1 MOL      0.076315
      6 H3          0.7350   -4.7040    4.0130 hc        1 MOL      0.076315
      7 N1          1.0800   -5.4530    0.7950 n         1 MOL     -0.283054
      8 C3          1.5040   -5.0740   -0.5840 c3        1 MOL     -0.019882
      9 C4          2.9480   -4.5960   -0.7360 c         1 MOL      0.621615
     10 O2          3.2730   -3.7230   -1.5800 o         1 MOL     -0.511597
     11 C5          0.4250   -4.1760   -1.2230 c3        1 MOL     -0.274837
     12 C6         -0.9810   -4.8310   -0.9890 c         1 MOL      0.882016
     13 O3         -1.5860   -4.6490    0.0530 o         1 MOL     -0.800944
     14 O4         -1.4120   -5.6820   -1.7630 o         1 MOL     -0.800944
     15 H4          0.4030   -6.1980    0.8450 hn        1 MOL      0.210904
     16 H5          1.6080   -5.9740   -1.1890 h1        1 MOL      0.083209
     17 H6          0.5670   -4.0780   -2.3020 hc        1 MOL      0.090943
     18 H7          0.4980   -3.1990   -0.7440 hc        1 MOL      0.090943
     19 N2          3.8320   -5.1830    0.1060 n         1 MOL     -0.389596
     20 C7          5.2380   -4.7750    0.1720 c3        1 MOL     -0.069237
     21 C8          6.0600   -5.2180   -1.0030 c         1 MOL      0.404371
     22 O5          5.7470   -6.2170   -1.6110 o         1 MOL     -0.588269
     23 C9          5.9500   -5.2910    1.4420 c3        1 MOL      0.175508
     24 C10         5.8430   -6.8440    1.6380 c3        1 MOL      0.020055
     25 C11         5.2950   -4.5710    2.6420 c3        1 MOL     -0.339722
     26 C12         6.6960   -7.3770    2.7660 c3        1 MOL     -0.149014
     27 H8          3.4260   -5.9700    0.6140 hn        1 MOL      0.168356
     28 H9          5.2730   -3.6890    0.2250 h1        1 MOL      0.126411
     29 H10         7.0000   -4.9980    1.4280 hc        1 MOL      0.089445
     30 H11         6.3030   -7.3910    0.8160 hc        1 MOL      0.022752
     31 H12         4.7930   -7.1210    1.7410 hc        1 MOL      0.022752
     32 H13         5.1930   -3.5190    2.3610 hc        1 MOL      0.083545
     33 H14         4.2960   -4.9970    2.7460 hc        1 MOL      0.083545
     34 H15         5.9090   -4.6460    3.5350 hc        1 MOL      0.083545
     35 H16         6.4100   -8.4200    2.9210 hc        1 MOL      0.022661
     36 H17         7.7530   -7.1820    2.5610 hc        1 MOL      0.022661
     37 H18         6.4530   -6.8730    3.7040 hc        1 MOL      0.022661
     38 N3          7.0410   -4.5320   -1.5150 n         1 MOL     -0.265009
     39 C13         7.7400   -3.3060   -1.0790 c3        1 MOL     -0.150063
     40 C14         6.9840   -1.9870   -1.4860 c         1 MOL      0.572271
     41 O6          7.1630   -1.0000   -0.7290 o         1 MOL     -0.472939
     42 C15         9.1240   -3.2410   -1.6320 c3        1 MOL     -0.082082
     43 C16         9.8590   -1.9480   -1.2450 c         1 MOL      0.577675
     44 O7         10.1470   -1.8710   -0.0410 o         1 MOL     -0.658697
     45 O8          9.9660   -1.0450   -2.1080 o         1 MOL     -0.658697
     46 H19         7.4730   -5.0200   -2.2820 hn        1 MOL      0.239836
     47 H20         7.7140   -3.3130    0.0160 h1        1 MOL      0.056857
     48 H21         9.1380   -3.2840   -2.7220 hc        1 MOL     -0.000620
     49 H22         9.7300   -4.0700   -1.2600 hc        1 MOL     -0.000620
     50 N4          6.1690   -1.9660   -2.5400 n         1 MOL     -0.307894
     51 C17         5.2650   -0.8960   -2.7200 c3        1 MOL     -0.270425
     52 C18         5.7560    0.5080   -3.0930 c         1 MOL      0.646686
     53 O9          6.5620    0.6970   -4.0330 o         1 MOL     -0.574361
     54 H23         6.0180   -2.7790   -3.1180 hn        1 MOL      0.284391
     55 H24         4.6630   -0.8540   -1.8040 h1        1 MOL      0.100113
     56 H25         4.6040   -1.2370   -3.5140 h1        1 MOL      0.100113
     57 N5          5.2050    1.4970   -2.3860 n         1 MOL     -0.494920
     58 C19         5.6150    2.9380   -2.5410 c3        1 MOL      0.151826
     59 C20         6.1350    3.5730   -1.2260 c         1 MOL      0.382636
     60 O10         6.4780    4.7680   -1.2370 o         1 MOL     -0.506483
     61 C21         4.3250    3.6600   -3.1500 c3        1 MOL     -0.318704
     62 C22         3.0650    3.7280   -2.3230 c         1 MOL      0.807780
     63 O11         2.0700    4.4270   -2.6560 o         1 MOL     -0.713943
     64 O12         2.9840    2.9730   -1.3050 o         1 MOL     -0.713943
     65 H26         4.4800    1.2650   -1.7250 hn        1 MOL      0.295614
     66 H27         6.4570    2.9550   -3.2350 h1        1 MOL      0.100037
     67 H28         4.0290    3.3400   -4.1490 hc        1 MOL      0.050836
     68 H29         4.6700    4.6780   -3.3390 hc        1 MOL      0.050836
     69 N6          5.9860    2.8700   -0.0780 n         1 MOL     -0.194333
     70 C23         6.0990    3.4120    1.3270 c3        1 MOL     -0.409871
     71 C24         5.1470    4.4950    1.7270 c         1 MOL      0.516033
     72 O13         5.2990    5.0980    2.7710 o         1 MOL     -0.563447
     73 H30         5.7570    1.8910   -0.1290 hn        1 MOL      0.222994
     74 H31         7.0590    3.9130    1.4720 h1        1 MOL      0.179654
     75 H32         5.9510    2.6370    2.0800 h1        1 MOL      0.179654
     76 N7          3.9960    4.6760    0.9710 n         1 MOL     -0.032181
     77 C25         2.8030    5.5630    1.3230 c3        1 MOL      0.002911
     78 C26         2.2810    5.3830    2.7190 c         1 MOL      0.515008
     79 O14         2.1380    6.3530    3.5230 o         1 MOL     -0.539915
     80 C27         3.1380    7.0210    0.8830 c3        1 MOL      0.184228
     81 C28         3.2570    7.1350   -0.6170 c3        1 MOL     -0.301655
     82 C29         3.6750    8.4740   -1.0850 c         1 MOL      0.771624
     83 N8          3.6310    8.7640   -2.3750 n         1 MOL     -0.837662
     84 O15         3.9100    9.3830   -0.3370 o         1 MOL     -0.618300
     85 H33         3.8360    4.0070    0.2370 hn        1 MOL      0.077394
     86 H34         2.0480    5.1750    0.6360 h1        1 MOL      0.078946
     87 H35         4.0060    7.4190    1.4120 hc        1 MOL     -0.023246
     88 H36         2.3040    7.6890    1.1000 hc        1 MOL     -0.023246
     89 H37         2.2410    6.9830   -0.9760 hc        1 MOL      0.080367
     90 H38         4.0550    6.5000   -0.9780 hc        1 MOL      0.080367
     91 H39         3.1710    8.1240   -3.0010 hn        1 MOL      0.346016
     92 H40         4.1270    9.5910   -2.6870 hn        1 MOL      0.346016
     93 N9          2.2280    4.1050    3.0850 n         1 MOL     -0.470429
     94 C30         1.6460    3.5590    4.3570 c3        1 MOL     -0.173910
     95 C31         0.6210    2.4520    4.0430 c         1 MOL      0.560588
     96 O16        -0.0230    1.9680    4.9740 o         1 MOL     -0.608926
     97 C32         2.7680    2.9630    5.2940 c3        1 MOL      0.249721
     98 C33         3.5260    1.8920    4.5280 c3        1 MOL     -0.323033
     99 C34         3.6240    4.1280    5.7690 c3        1 MOL     -0.323033
    100 H41         2.6800    3.4720    2.4330 hn        1 MOL      0.256376
    101 H42         1.1670    4.3870    4.8800 h1        1 MOL      0.152587
    102 H43         2.2580    2.5110    6.1440 hc        1 MOL     -0.008932
    103 H44         2.9100    1.0690    4.1730 hc        1 MOL      0.081879
    104 H45         4.0090    2.2000    3.6060 hc        1 MOL      0.081879
    105 H46         4.2790    1.4070    5.1540 hc        1 MOL      0.081879
    106 H47         3.0060    4.8230    6.3420 hc        1 MOL      0.081879
    107 H48         4.4680    3.8260    6.3940 hc        1 MOL      0.081879
    108 H49         3.9810    4.6920    4.9090 hc        1 MOL      0.081879
    109 N10         0.4030    2.0370    2.8410 n         1 MOL     -0.280989
    110 C35        -0.6900    1.2500    2.3210 c3        1 MOL      0.107714
    111 C36        -1.1360    2.0040    1.0350 c         1 MOL      0.459925
    112 O17        -0.5080    2.9940    0.5200 o         1 MOL     -0.514311
    113 C37        -0.1050   -0.1000    1.9990 c3        1 MOL     -0.296043
    114 C38        -1.1730   -1.2050    1.9040 c         1 MOL      0.746508
    115 N11        -0.8500   -2.4590    2.0020 n         1 MOL     -0.899467
    116 O18        -2.3280   -0.9730    1.6530 o         1 MOL     -0.579164
    117 H50         1.0050    2.3660    2.0900 hn        1 MOL      0.206832
    118 H51        -1.5170    1.3270    3.0200 h1        1 MOL      0.072658
    119 H52         0.6110   -0.3260    2.7900 hc        1 MOL      0.115844
    120 H53         0.4310   -0.0630    1.0510 hc        1 MOL      0.115844
    121 H54         0.0890   -2.8210    2.1140 hn        1 MOL      0.413544
    122 H55        -1.5410   -3.1660    1.7810 hn        1 MOL      0.413544
    123 N12        -2.2790    1.5460    0.5250 n         1 MOL     -0.472451
    124 C39        -3.2740    2.2840   -0.2870 c3        1 MOL      0.178342
    125 C40        -4.6530    1.7230   -0.1220 c         1 MOL      0.713828
    126 O19        -4.7850    0.5390   -0.1360 o         1 MOL     -0.530805
    127 C41        -2.8000    2.3220   -1.7560 c3        1 MOL     -0.192803
    128 C42        -3.4910    3.2560   -2.6880 ca        1 MOL      0.093871
    129 C43        -4.7650    2.9630   -3.1620 ca        1 MOL     -0.213454
    130 C44        -2.8300    4.4800   -3.1040 ca        1 MOL     -0.213454
    131 C45        -5.5070    3.9280   -3.9250 ca        1 MOL     -0.212812
    132 C46        -3.5220    5.4450   -3.8570 ca        1 MOL     -0.212812
    133 C47        -4.8570    5.1540   -4.2270 ca        1 MOL      0.281154
    134 O20        -5.6170    6.2060   -4.7660 oh        1 MOL     -0.572865
    135 H56        -2.5980    0.6620    0.8940 hn        1 MOL      0.249653
    136 H57        -3.3260    3.3270    0.0270 h1        1 MOL      0.040751
    137 H58        -2.9160    1.3120   -2.1420 hc        1 MOL      0.090455
    138 H59        -1.7270    2.5210   -1.6920 hc        1 MOL      0.090455
    139 H60        -5.2260    2.0500   -2.8150 ha        1 MOL      0.179265
    140 H61        -1.8330    4.6580   -2.7310 ha        1 MOL      0.179265
    141 H62        -6.5400    3.8450   -4.2310 ha        1 MOL      0.145249
    142 H63        -3.1000    6.3730   -4.1970 ha        1 MOL      0.145249
    143 H64        -6.5610    6.1270   -4.9280 ho        1 MOL      0.397697
    144 N13        -5.7020    2.4770    0.0180 n         1 MOL     -0.935068
    145 C48        -7.0430    1.8840    0.1920 c3        1 MOL      0.584974
    146 C49        -7.5960    1.5180   -1.2090 c         1 MOL      0.588317
    147 O21        -7.8100    2.4190   -2.0400 o         1 MOL     -0.579665
    148 C50        -7.9190    2.8300    1.0370 c3        1 MOL     -0.063296
    149 C51        -9.3630    2.3570    1.2080 c3        1 MOL     -0.210794
    150 C52       -10.2480    3.5770    1.6620 c         1 MOL      0.674842
    151 O22       -10.8150    3.4020    2.7750 o         1 MOL     -0.707067
    152 O23       -10.3880    4.5540    0.8930 o         1 MOL     -0.707067
    153 H65        -5.7290    3.4610   -0.1910 hn        1 MOL      0.392460
    154 H66        -6.9060    0.9670    0.7670 h1        1 MOL     -0.132854
    155 H67        -7.8440    3.7980    0.5400 hc        1 MOL      0.019426
    156 H68        -7.5000    2.8730    2.0430 hc        1 MOL      0.019426
    157 H69        -9.4150    1.5040    1.8900 hc        1 MOL      0.038416
    158 H70        -9.7050    1.9490    0.2540 hc        1 MOL      0.038416
    159 N14        -7.9990    0.2790   -1.4040 n         1 MOL     -0.777597
    160 C53        -7.7150   -0.9500   -0.5740 c3        1 MOL      0.099846
    161 C54        -8.5030   -1.0680    0.7630 c         1 MOL      0.680557
    162 O24        -9.7150   -1.0940    0.6900 o         1 MOL     -0.589879
    163 C55        -8.0200   -2.2040   -1.3790 c3        1 MOL      0.062538
    164 C56        -7.9130   -3.6050   -0.7900 c3        1 MOL     -0.114036
    165 C57        -6.4710   -4.1300   -0.8410 c         1 MOL      0.614248
    166 O25        -5.5180   -3.4940   -0.2980 o         1 MOL     -0.724302
    167 O26        -6.2850   -5.1770   -1.4670 o         1 MOL     -0.724302
    168 H71        -8.6370    0.1410   -2.1740 hn        1 MOL      0.361896
    169 H72        -6.6720   -1.0280   -0.2840 h1        1 MOL      0.079828
    170 H73        -7.3870   -2.2290   -2.2680 hc        1 MOL      0.028106
    171 H74        -9.0290   -2.0950   -1.7710 hc        1 MOL      0.028106
    172 H75        -8.5920   -4.2040   -1.3960 hc        1 MOL     -0.011500
    173 H76        -8.2880   -3.6110    0.2330 hc        1 MOL     -0.011500
    174 N15        -7.8420   -1.3050    1.9000 n         1 MOL     -0.300498
    175 C58        -8.3870   -1.5580    3.2230 c3        1 MOL     -0.148907
    176 H77        -9.4250   -1.8810    3.1310 h1        1 MOL      0.075235
    177 H78        -7.8050   -2.3370    3.7130 h1        1 MOL      0.075235
    178 H79        -8.3430   -0.6430    3.8140 h1        1 MOL      0.075235
    179 H80        -6.8730   -1.5540    1.7610 hn        1 MOL      0.234606
    180 Ca1        -3.8500   -5.7550   -0.7160 Ca        1 MOL      1.740295
    181 O27        -4.0750   -5.8310    2.0530 oh        1 MOL     -0.850762
    182 H81        -4.6980   -6.4130    2.5030 ho        1 MOL      0.413215
    183 H82        -3.6540   -5.3350    2.7520 ho        1 MOL      0.413215
    184 O28        -3.5390   -4.1450   -2.9890 oh        1 MOL     -0.850762
    185 H83        -3.8340   -3.3210   -3.3800 ho        1 MOL      0.413215
    186 H84        -3.1470   -4.6290   -3.7150 ho        1 MOL      0.413215
    187 O29        -5.4510   -7.8250    0.1740 oh        1 MOL     -0.850762
    188 H85        -6.2250   -8.1390   -0.2950 ho        1 MOL      0.413215
    189 H86        -5.6630   -7.9500    1.1050 ho        1 MOL      0.413215
    190 O30        -4.0740   -7.4330   -2.6890 oh        1 MOL     -0.850762
    191 H87        -4.7490   -8.0620   -2.9640 ho        1 MOL      0.413215
    192 H88        -3.8150   -6.9950   -3.5020 ho        1 MOL      0.413215
@<TRIPOS>BOND
     1    1    2 1   
     2    1    4 1   
     3    1    5 1   
     4    1    6 1   
     5    2    3 2   
     6    2    7 1   
     7    7    8 1   
     8    7   15 1   
     9    8    9 1   
    10    8   11 1   
    11    8   16 1   
    12    9   10 2   
    13    9   19 1   
    14   11   12 1   
    15   11   17 1   
    16   11   18 1   
    17   12   13 1   
    18   12   14 1   
    19   19   20 1   
    20   19   27 1   
    21   20   21 1   
    22   20   23 1   
    23   20   28 1   
    24   21   22 2   
    25   21   38 1   
    26   23   24 1   
    27   23   25 1   
    28   23   29 1   
    29   24   26 1   
    30   24   30 1   
    31   24   31 1   
    32   25   32 1   
    33   25   33 1   
    34   25   34 1   
    35   26   35 1   
    36   26   36 1   
    37   26   37 1   
    38   38   39 1   
    39   38   46 1   
    40   39   40 1   
    41   39   42 1   
    42   39   47 1   
    43   40   41 2   
    44   40   50 1   
    45   42   43 1   
    46   42   48 1   
    47   42   49 1   
    48   43   44 1   
    49   43   45 1   
    50   50   51 1   
    51   50   54 1   
    52   51   52 1   
    53   51   55 1   
    54   51   56 1   
    55   52   53 2   
    56   52   57 1   
    57   57   58 1   
    58   57   65 1   
    59   58   59 1   
    60   58   61 1   
    61   58   66 1   
    62   59   60 2   
    63   59   69 1   
    64   61   62 1   
    65   61   67 1   
    66   61   68 1   
    67   62   63 1   
    68   62   64 1   
    69   69   70 1   
    70   69   73 1   
    71   70   71 1   
    72   70   74 1   
    73   70   75 1   
    74   71   72 2   
    75   71   76 1   
    76   76   77 1   
    77   76   85 1   
    78   77   78 1   
    79   77   80 1   
    80   77   86 1   
    81   78   79 2   
    82   78   93 1   
    83   80   81 1   
    84   80   87 1   
    85   80   88 1   
    86   81   82 1   
    87   81   89 1   
    88   81   90 1   
    89   82   83 1   
    90   82   84 2   
    91   83   91 1   
    92   83   92 1   
    93   93   94 1   
    94   93  100 1   
    95   94   95 1   
    96   94   97 1   
    97   94  101 1   
    98   95   96 2   
    99   95  109 1   
   100   97   98 1   
   101   97   99 1   
   102   97  102 1   
   103   98  103 1   
   104   98  104 1   
   105   98  105 1   
   106   99  106 1   
   107   99  107 1   
   108   99  108 1   
   109  109  110 1   
   110  109  117 1   
   111  110  111 1   
   112  110  113 1   
   113  110  118 1   
   114  111  112 2   
   115  111  123 1   
   116  113  114 1   
   117  113  119 1   
   118  113  120 1   
   119  114  115 1   
   120  114  116 2   
   121  115  121 1   
   122  115  122 1   
   123  123  124 1   
   124  123  135 1   
   125  124  125 1   
   126  124  127 1   
   127  124  136 1   
   128  125  126 2   
   129  125  144 1   
   130  127  128 1   
   131  127  137 1   
   132  127  138 1   
   133  128  129 ar  
   134  128  130 ar  
   135  129  131 ar  
   136  129  139 1   
   137  130  132 ar  
   138  130  140 1   
   139  131  133 ar  
   140  131  141 1   
   141  132  133 ar  
   142  132  142 1   
   143  133  134 1   
   144  134  143 1   
   145  144  145 1   
   146  144  153 1   
   147  145  146 1   
   148  145  148 1   
   149  145  154 1   
   150  146  147 2   
   151  146  159 1   
   152  148  149 1   
   153  148  155 1   
   154  148  156 1   
   155  149  150 1   
   156  149  157 1   
   157  149  158 1   
   158  150  151 1   
   159  150  152 1   
   160  159  160 1   
   161  159  168 1   
   162  160  161 1   
   163  160  163 1   
   164  160  169 1   
   165  161  162 2   
   166  161  174 1   
   167  163  164 1   
   168  163  170 1   
   169  163  171 1   
   170  164  165 1   
   171  164  172 1   
   172  164  173 1   
   173  165  166 1   
   174  165  167 1   
   175  174  175 1   
   176  174  179 1   
   177  175  176 1   
   178  175  177 1   
   179  175  178 1   
   180  181  182 1   
   181  181  183 1   
   182  184  185 1   
   183  184  186 1   
   184  187  188 1   
   185  187  189 1   
   186  190  191 1   
   187  190  192 1   
@<TRIPOS>SUBSTRUCTURE
     1 MOL         1 TEMP              0 ****  ****    0 ROOT
