@<TRIPOS>MOLECULE
MOL
  192   187     1     0     0
SMALL
resp


@<TRIPOS>ATOM
      1 C1          3.1200    5.2530   -2.7590 c3        1 MOL     -0.340720
      2 C2          4.1060    4.2630   -1.9910 c         1 MOL      0.767911
      3 O1          3.7770    3.6580   -0.9960 o         1 MOL     -0.640244
      4 H1          3.0610    4.9630   -3.8080 hc        1 MOL      0.087856
      5 H2          2.1280    5.1980   -2.3110 hc        1 MOL      0.087856
      6 H3          3.4980    6.2720   -2.6840 hc        1 MOL      0.087856
      7 N1          5.3450    4.1010   -2.4520 n         1 MOL     -0.617699
      8 C3          6.4020    3.0440   -2.2190 c3        1 MOL      0.342848
      9 C4          5.6490    1.6670   -2.0290 c         1 MOL      0.354003
     10 O2          5.2770    1.2600   -0.9600 o         1 MOL     -0.581323
     11 C5          7.2770    3.3790   -0.9770 c3        1 MOL     -0.224954
     12 C6          6.6550    4.2120    0.1680 c         1 MOL      0.757677
     13 O3          6.1470    3.5670    1.0900 o         1 MOL     -0.717995
     14 O4          6.8830    5.4660    0.1260 o         1 MOL     -0.717995
     15 H4          5.5150    4.5300   -3.3490 hn        1 MOL      0.272064
     16 H5          7.1780    2.9050   -2.9710 h1        1 MOL      0.005325
     17 H6          8.0100    4.0290   -1.4600 hc        1 MOL      0.032054
     18 H7          7.7330    2.5180   -0.4950 hc        1 MOL      0.032054
     19 N2          5.3890    0.9550   -3.1170 n         1 MOL     -0.549065
     20 C7          4.7820   -0.4290   -3.2790 c3        1 MOL      0.367942
     21 C8          5.6490   -1.5150   -2.6770 c         1 MOL      0.260788
     22 O5          6.1100   -2.4040   -3.4000 o         1 MOL     -0.546342
     23 C9          3.2870   -0.4760   -2.9750 c3        1 MOL      0.090131
     24 C10         2.5860   -1.8180   -3.2560 c3        1 MOL     -0.030723
     25 C11         2.4450    0.7770   -3.5200 c3        1 MOL     -0.358595
     26 C12         2.8430   -2.5100   -4.5870 c3        1 MOL     -0.343098
     27 H8          5.5310    1.4030   -4.0130 hn        1 MOL      0.266865
     28 H9          4.8760   -0.6560   -4.3420 h1        1 MOL     -0.015747
     29 H10         3.2420   -0.3930   -1.8910 hc        1 MOL     -0.034800
     30 H11         1.5180   -1.7340   -3.0610 hc        1 MOL      0.093400
     31 H12         2.9450   -2.4920   -2.4740 hc        1 MOL      0.093400
     32 H13         1.3900    0.5010   -3.6070 hc        1 MOL      0.072204
     33 H14         2.4240    1.5690   -2.7770 hc        1 MOL      0.072204
     34 H15         2.7980    1.3030   -4.4090 hc        1 MOL      0.072204
     35 H16         2.0130   -3.1870   -4.8060 hc        1 MOL      0.073633
     36 H17         2.8570   -1.8470   -5.4610 hc        1 MOL      0.073633
     37 H18         3.8050   -3.0130   -4.5740 hc        1 MOL      0.073633
     38 N3          6.0260   -1.4460   -1.3910 n         1 MOL      0.041892
     39 C13         7.0870   -2.3650   -0.7790 c3        1 MOL     -0.161214
     40 C14         6.7170   -3.8920   -0.6300 c         1 MOL      0.690760
     41 O6          7.6490   -4.6640   -0.8200 o         1 MOL     -0.556556
     42 C15         7.5470   -1.7090    0.5300 c3        1 MOL     -0.183033
     43 C16         8.6530   -2.4670    1.2700 c         1 MOL      0.691544
     44 O7          9.8330   -2.5600    0.7540 o         1 MOL     -0.728846
     45 O8          8.3500   -2.9310    2.4180 o         1 MOL     -0.728846
     46 H19         5.7630   -0.6350   -0.8600 hn        1 MOL      0.158670
     47 H20         7.9630   -2.3740   -1.4250 h1        1 MOL      0.071258
     48 H21         6.6590   -1.5900    1.1580 hc        1 MOL      0.070153
     49 H22         7.9390   -0.7210    0.2780 hc        1 MOL      0.070153
     50 N4          5.4980   -4.3170   -0.3140 n         1 MOL     -0.711078
     51 C17         4.3760   -3.5880    0.1930 c3        1 MOL      0.474980
     52 C18         3.3450   -4.4220    0.8630 c         1 MOL      0.450667
     53 O9          3.2270   -5.6210    0.6020 o         1 MOL     -0.546048
     54 H23         5.3540   -5.2970   -0.0910 hn        1 MOL      0.304337
     55 H24         3.9160   -3.0670   -0.6420 h1        1 MOL     -0.003543
     56 H25         4.7810   -2.9340    0.9730 h1        1 MOL     -0.003543
     57 N5          2.4870   -3.8360    1.7950 n         1 MOL     -0.465022
     58 C19         2.5030   -2.4710    2.3430 c3        1 MOL     -0.050652
     59 C20         2.6460   -1.3070    1.2770 c         1 MOL     -0.010136
     60 O10         3.7390   -0.7290    1.1140 o         1 MOL     -0.460387
     61 C21         3.5660   -2.3810    3.5310 c3        1 MOL     -0.038015
     62 C22         3.4740   -1.0770    4.3500 c         1 MOL      0.608494
     63 O11         4.5010   -0.6750    4.9430 o         1 MOL     -0.641950
     64 O12         2.3200   -0.5910    4.5660 o         1 MOL     -0.641950
     65 H26         1.7230   -4.4120    2.1270 hn        1 MOL      0.327953
     66 H27         1.5070   -2.3050    2.7630 h1        1 MOL      0.063334
     67 H28         4.5540   -2.5080    3.0860 hc        1 MOL      0.051822
     68 H29         3.5390   -3.2780    4.1520 hc        1 MOL      0.051822
     69 N6          1.5880   -0.8020    0.5730 n         1 MOL      0.067097
     70 C23         0.2240   -1.3010    0.5960 c3        1 MOL     -0.124803
     71 C24        -0.1050   -2.5990   -0.1700 c         1 MOL      0.381889
     72 O13         0.6950   -3.0920   -0.9770 o         1 MOL     -0.475962
     73 H30         1.7840    0.0140    0.0130 hn        1 MOL      0.147223
     74 H31        -0.3610   -0.4700    0.1850 h1        1 MOL      0.043192
     75 H32        -0.1100   -1.4480    1.6280 h1        1 MOL      0.043192
     76 N7         -1.3130   -3.0810    0.0870 n         1 MOL     -0.139824
     77 C25        -1.7330   -4.3760   -0.5310 c3        1 MOL     -0.152330
     78 C26        -2.4500   -4.0810   -1.9150 c         1 MOL      0.433324
     79 O14        -2.5390   -5.0030   -2.7350 o         1 MOL     -0.517228
     80 C27        -2.7160   -5.2460    0.3480 c3        1 MOL     -0.023600
     81 C28        -2.5690   -5.3550    1.9090 c3        1 MOL     -0.084554
     82 C29        -1.1450   -5.6200    2.3320 c         1 MOL      0.637346
     83 N8         -0.6160   -5.0320    3.3910 n         1 MOL     -0.762170
     84 O15        -0.4590   -6.3420    1.6830 o         1 MOL     -0.510712
     85 H33        -1.8740   -2.6700    0.8220 hn        1 MOL      0.211245
     86 H34        -0.8030   -4.9260   -0.6650 h1        1 MOL      0.156637
     87 H35        -2.6460   -6.2970    0.0430 hc        1 MOL      0.055974
     88 H36        -3.7090   -4.9020    0.0840 hc        1 MOL      0.055974
     89 H37        -3.2380   -6.1070    2.3110 hc        1 MOL     -0.003164
     90 H38        -2.9000   -4.3920    2.3050 hc        1 MOL     -0.003164
     91 H39        -1.2540   -4.5170    3.9680 hn        1 MOL      0.353049
     92 H40         0.1750   -5.4550    3.8620 hn        1 MOL      0.353049
     93 N9         -2.9990   -2.8820   -2.1330 n         1 MOL     -0.296584
     94 C30        -3.5570   -2.4740   -3.4330 c3        1 MOL     -0.105651
     95 C31        -5.0310   -2.1330   -3.4840 c         1 MOL      0.587515
     96 O16        -5.5480   -2.1770   -4.5550 o         1 MOL     -0.556163
     97 C32        -2.8440   -1.1900   -3.8780 c3        1 MOL      0.002973
     98 C33        -1.5420   -1.5580   -4.5340 c3        1 MOL     -0.056280
     99 C34        -2.6810   -0.0130   -2.9230 c3        1 MOL     -0.056280
    100 H41        -3.0320   -2.2770   -1.3250 hn        1 MOL      0.188730
    101 H42        -3.4300   -3.1810   -4.2580 h1        1 MOL      0.146071
    102 H43        -3.4540   -0.7100   -4.6370 hc        1 MOL      0.040453
    103 H44        -0.9850   -0.7290   -4.9670 hc        1 MOL      0.020431
    104 H45        -0.8140   -2.0340   -3.8720 hc        1 MOL      0.020431
    105 H46        -1.6780   -2.2560   -5.3670 hc        1 MOL      0.020431
    106 H47        -2.0920   -0.1630   -2.0220 hc        1 MOL      0.020431
    107 H48        -2.1510    0.7530   -3.4810 hc        1 MOL      0.020431
    108 H49        -3.6510    0.4420   -2.7260 hc        1 MOL      0.020431
    109 N10        -5.6880   -1.8760   -2.3440 n         1 MOL     -0.447113
    110 C35        -7.1290   -1.6240   -2.2540 c3        1 MOL      0.099129
    111 C36        -7.4210   -0.2980   -1.5050 c         1 MOL      0.455489
    112 O17        -8.5370    0.1800   -1.6990 o         1 MOL     -0.519934
    113 C37        -7.7850   -2.8740   -1.5880 c3        1 MOL     -0.184161
    114 C38        -9.3270   -2.7910   -1.5170 c         1 MOL      0.708362
    115 N11        -9.9220   -2.5610   -2.6560 n         1 MOL     -0.828798
    116 O18        -9.9240   -3.1140   -0.4980 o         1 MOL     -0.578084
    117 H50        -5.2610   -2.0200   -1.4370 hn        1 MOL      0.287662
    118 H51        -7.5320   -1.4380   -3.2490 h1        1 MOL      0.072341
    119 H52        -7.3900   -2.9510   -0.5780 hc        1 MOL      0.048069
    120 H53        -7.5590   -3.7780   -2.1500 hc        1 MOL      0.048069
    121 H54        -9.4300   -2.3610   -3.5060 hn        1 MOL      0.371918
    122 H55       -10.9220   -2.7110   -2.6840 hn        1 MOL      0.371918
    123 N12        -6.4710    0.3220   -0.8180 n         1 MOL     -0.298294
    124 C39        -6.5970    1.5500   -0.1140 c3        1 MOL      0.000897
    125 C40        -5.3020    2.2330    0.3200 c         1 MOL      0.474564
    126 O19        -4.2970    1.5060    0.3560 o         1 MOL     -0.436979
    127 C41        -7.4440    1.2270    1.1140 c3        1 MOL     -0.171143
    128 C42        -6.9000    0.0540    1.9130 ca        1 MOL     -0.050264
    129 C43        -5.8640    0.3660    2.7980 ca        1 MOL     -0.068162
    130 C44        -7.3470   -1.2720    1.7630 ca        1 MOL     -0.068162
    131 C45        -5.2600   -0.6600    3.5910 ca        1 MOL     -0.322092
    132 C46        -6.8650   -2.2360    2.6710 ca        1 MOL     -0.322092
    133 C47        -5.8140   -1.9550    3.5410 ca        1 MOL      0.478919
    134 O20        -5.4150   -2.9320    4.3780 oh        1 MOL     -0.625612
    135 H56        -5.5670   -0.1100   -0.6680 hn        1 MOL      0.186985
    136 H57        -7.2320    2.2500   -0.6660 h1        1 MOL      0.057160
    137 H58        -8.4870    1.0840    0.8470 hc        1 MOL      0.095290
    138 H59        -7.4000    2.1260    1.7280 hc        1 MOL      0.095290
    139 H60        -5.4670    1.3740    2.8010 ha        1 MOL      0.119604
    140 H61        -8.1380   -1.4370    1.0550 ha        1 MOL      0.119604
    141 H62        -4.4990   -0.4110    4.3180 ha        1 MOL      0.151506
    142 H63        -7.2960   -3.2300    2.6240 ha        1 MOL      0.151506
    143 H64        -4.6040   -2.7850    4.8710 ho        1 MOL      0.438572
    144 N13        -5.3110    3.5530    0.6170 n         1 MOL     -0.596988
    145 C48        -4.2920    4.3600    1.3760 c3        1 MOL      0.122826
    146 C49        -3.0240    4.7610    0.6110 c         1 MOL      0.487493
    147 O21        -2.5070    5.8410    0.9090 o         1 MOL     -0.541575
    148 C50        -3.8010    3.8310    2.7620 c3        1 MOL     -0.195884
    149 C51        -4.9300    3.9430    3.7830 c3        1 MOL      0.030595
    150 C52        -4.5390    3.4450    5.2080 c         1 MOL      0.638927
    151 O22        -4.6050    4.1870    6.2010 o         1 MOL     -0.696662
    152 O23        -4.1890    2.2490    5.2810 o         1 MOL     -0.696662
    153 H65        -6.2530    3.9180    0.5410 hn        1 MOL      0.331895
    154 H66        -4.8260    5.3080    1.5200 h1        1 MOL      0.071172
    155 H67        -3.0580    4.5700    3.0650 hc        1 MOL      0.104275
    156 H68        -3.3790    2.8250    2.7710 hc        1 MOL      0.104275
    157 H69        -5.8330    3.3720    3.5890 hc        1 MOL     -0.043894
    158 H70        -5.2670    4.9730    3.9310 hc        1 MOL     -0.043894
    159 N14        -2.5630    4.0110   -0.4240 n         1 MOL     -0.449316
    160 C53        -1.5250    4.4930   -1.3780 c3        1 MOL     -0.016323
    161 C54        -2.1280    5.4680   -2.4140 c         1 MOL      0.451785
    162 O24        -1.4970    5.8070   -3.4110 o         1 MOL     -0.529647
    163 C55        -0.8910    3.2700   -2.0310 c3        1 MOL     -0.091218
    164 C56        -0.3840    2.1720   -1.1310 c3        1 MOL      0.624405
    165 C57         0.6650    2.5780   -0.1060 c         1 MOL      0.415467
    166 O25         0.4660    3.5960    0.5890 o         1 MOL     -0.587214
    167 O26         1.7820    1.9540   -0.0560 o         1 MOL     -0.587214
    168 H71        -3.1360    3.2200   -0.6970 hn        1 MOL      0.243513
    169 H72        -0.7360    5.1050   -0.9280 h1        1 MOL      0.147853
    170 H73        -0.0690    3.5940   -2.6740 hc        1 MOL     -0.004844
    171 H74        -1.7210    2.8340   -2.5960 hc        1 MOL     -0.004844
    172 H75         0.0400    1.4020   -1.7760 hc        1 MOL     -0.158792
    173 H76        -1.2160    1.7310   -0.5830 hc        1 MOL     -0.158792
    174 N15        -3.4470    5.7070   -2.3540 n         1 MOL     -0.196465
    175 C58        -4.1820    6.6570   -3.2450 c3        1 MOL     -0.281428
    176 H77        -4.1790    6.2750   -4.2650 h1        1 MOL      0.111676
    177 H78        -5.2100    6.7590   -2.8990 h1        1 MOL      0.111676
    178 H79        -3.6920    7.6310   -3.2220 h1        1 MOL      0.111676
    179 H80        -3.9640    5.3410   -1.5600 hn        1 MOL      0.200420
    180 Ca1         3.9710    2.1020    1.1440 Ca        1 MOL      1.770784
    181 O27         5.5450    0.8000    2.9440 oh        1 MOL     -0.829564
    182 H81         6.4620    0.8000    3.2130 ho        1 MOL      0.391615
    183 H82         5.0800    0.3910    3.6730 ho        1 MOL      0.391615
    184 O28         2.7790    4.3470    1.7710 oh        1 MOL     -0.829564
    185 H83         1.9610    4.2220    1.2860 ho        1 MOL      0.391615
    186 H84         2.7050    5.2310    2.1540 ho        1 MOL      0.391615
    187 O29         4.1900    3.1400    3.9680 oh        1 MOL     -0.829564
    188 H85         4.1650    2.6530    4.7900 ho        1 MOL      0.391615
    189 H86         3.7220    3.9610    4.1610 ho        1 MOL      0.391615
    190 O30         1.9570    1.3970    2.8640 oh        1 MOL     -0.829564
    191 H87         2.0400    0.7510    3.5590 ho        1 MOL      0.391615
    192 H88         1.1430    1.8540    3.0520 ho        1 MOL      0.391615
@<TRIPOS>BOND
     1    1    2 1   
     2    1    4 1   
     3    1    5 1   
     4    1    6 1   
     5    2    3 2   
     6    2    7 1   
     7    7    8 1   
     8    7   15 1   
     9    8    9 1   
    10    8   11 1   
    11    8   16 1   
    12    9   10 2   
    13    9   19 1   
    14   11   12 1   
    15   11   17 1   
    16   11   18 1   
    17   12   13 1   
    18   12   14 1   
    19   19   20 1   
    20   19   27 1   
    21   20   21 1   
    22   20   23 1   
    23   20   28 1   
    24   21   22 2   
    25   21   38 1   
    26   23   24 1   
    27   23   25 1   
    28   23   29 1   
    29   24   26 1   
    30   24   30 1   
    31   24   31 1   
    32   25   32 1   
    33   25   33 1   
    34   25   34 1   
    35   26   35 1   
    36   26   36 1   
    37   26   37 1   
    38   38   39 1   
    39   38   46 1   
    40   39   40 1   
    41   39   42 1   
    42   39   47 1   
    43   40   41 2   
    44   40   50 1   
    45   42   43 1   
    46   42   48 1   
    47   42   49 1   
    48   43   44 1   
    49   43   45 1   
    50   50   51 1   
    51   50   54 1   
    52   51   52 1   
    53   51   55 1   
    54   51   56 1   
    55   52   53 2   
    56   52   57 1   
    57   57   58 1   
    58   57   65 1   
    59   58   59 1   
    60   58   61 1   
    61   58   66 1   
    62   59   60 2   
    63   59   69 1   
    64   61   62 1   
    65   61   67 1   
    66   61   68 1   
    67   62   63 1   
    68   62   64 1   
    69   69   70 1   
    70   69   73 1   
    71   70   71 1   
    72   70   74 1   
    73   70   75 1   
    74   71   72 2   
    75   71   76 1   
    76   76   77 1   
    77   76   85 1   
    78   77   78 1   
    79   77   80 1   
    80   77   86 1   
    81   78   79 2   
    82   78   93 1   
    83   80   81 1   
    84   80   87 1   
    85   80   88 1   
    86   81   82 1   
    87   81   89 1   
    88   81   90 1   
    89   82   83 1   
    90   82   84 2   
    91   83   91 1   
    92   83   92 1   
    93   93   94 1   
    94   93  100 1   
    95   94   95 1   
    96   94   97 1   
    97   94  101 1   
    98   95   96 2   
    99   95  109 1   
   100   97   98 1   
   101   97   99 1   
   102   97  102 1   
   103   98  103 1   
   104   98  104 1   
   105   98  105 1   
   106   99  106 1   
   107   99  107 1   
   108   99  108 1   
   109  109  110 1   
   110  109  117 1   
   111  110  111 1   
   112  110  113 1   
   113  110  118 1   
   114  111  112 2   
   115  111  123 1   
   116  113  114 1   
   117  113  119 1   
   118  113  120 1   
   119  114  115 1   
   120  114  116 2   
   121  115  121 1   
   122  115  122 1   
   123  123  124 1   
   124  123  135 1   
   125  124  125 1   
   126  124  127 1   
   127  124  136 1   
   128  125  126 2   
   129  125  144 1   
   130  127  128 1   
   131  127  137 1   
   132  127  138 1   
   133  128  129 ar  
   134  128  130 ar  
   135  129  131 ar  
   136  129  139 1   
   137  130  132 ar  
   138  130  140 1   
   139  131  133 ar  
   140  131  141 1   
   141  132  133 ar  
   142  132  142 1   
   143  133  134 1   
   144  134  143 1   
   145  144  145 1   
   146  144  153 1   
   147  145  146 1   
   148  145  148 1   
   149  145  154 1   
   150  146  147 2   
   151  146  159 1   
   152  148  149 1   
   153  148  155 1   
   154  148  156 1   
   155  149  150 1   
   156  149  157 1   
   157  149  158 1   
   158  150  151 1   
   159  150  152 1   
   160  159  160 1   
   161  159  168 1   
   162  160  161 1   
   163  160  163 1   
   164  160  169 1   
   165  161  162 2   
   166  161  174 1   
   167  163  164 1   
   168  163  170 1   
   169  163  171 1   
   170  164  165 1   
   171  164  172 1   
   172  164  173 1   
   173  165  166 1   
   174  165  167 1   
   175  174  175 1   
   176  174  179 1   
   177  175  176 1   
   178  175  177 1   
   179  175  178 1   
   180  181  182 1   
   181  181  183 1   
   182  184  185 1   
   183  184  186 1   
   184  187  188 1   
   185  187  189 1   
   186  190  191 1   
   187  190  192 1   
@<TRIPOS>SUBSTRUCTURE
     1 MOL         1 TEMP              0 ****  ****    0 ROOT
