@<TRIPOS>MOLECULE
MOL
  188   182     1     0     0
SMALL
resp


@<TRIPOS>ATOM
      1 C1          5.3850   -0.2790    4.4830 c3        1 MOL     -0.165007
      2 C2          5.8590    0.3710    3.2030 c         1 MOL      0.607669
      3 O1          5.2260    0.5380    2.2090 o         1 MOL     -0.489321
      4 H1          4.3070   -0.4360    4.4340 hc        1 MOL      0.047668
      5 H2          5.8860   -1.2390    4.6120 hc        1 MOL      0.047668
      6 H3          5.6170    0.3680    5.3280 hc        1 MOL      0.047668
      7 N1          7.1030    0.8310    3.1160 n         1 MOL     -0.413887
      8 C3          7.6940    1.5400    1.9920 c3        1 MOL     -0.156083
      9 C4          7.6100    0.8520    0.6490 c         1 MOL      0.636616
     10 O2          7.5410    1.4520   -0.3880 o         1 MOL     -0.505287
     11 C5          7.3930    3.0390    2.0630 c3        1 MOL     -0.159884
     12 C6          7.6100    3.7200    3.4410 c         1 MOL      0.656893
     13 O3          6.6420    3.7860    4.1960 o         1 MOL     -0.631277
     14 O4          8.5550    4.5350    3.6200 o         1 MOL     -0.631277
     15 H4          7.6280    0.6340    3.9600 hn        1 MOL      0.263861
     16 H5          8.7560    1.5960    2.2440 h1        1 MOL      0.090754
     17 H6          6.3710    3.1740    1.7060 hc        1 MOL      0.086721
     18 H7          8.0530    3.5660    1.3680 hc        1 MOL      0.086721
     19 N2          7.5830   -0.5570    0.5520 n         1 MOL     -0.518699
     20 C7          7.3730   -1.4190   -0.6320 c3        1 MOL      0.074518
     21 C8          5.9620   -2.0630   -0.8300 c         1 MOL      0.542764
     22 O5          5.8310   -3.1030   -1.5520 o         1 MOL     -0.599517
     23 C9          8.6290   -2.2870   -0.8580 c3        1 MOL     -0.143518
     24 C10         8.8220   -3.4270    0.1630 c3        1 MOL     -0.023442
     25 C11        10.1670   -4.2240   -0.2020 c3        1 MOL     -0.030202
     26 C12        11.3730   -3.3320    0.0460 c3        1 MOL      0.061152
     27 N3         12.6770   -4.0620   -0.0730 n4        1 MOL     -0.322373
     28 H8          7.7320   -1.0650    1.4150 hn        1 MOL      0.209701
     29 H9          7.2980   -0.7750   -1.5130 h1        1 MOL      0.097170
     30 H10         9.5600   -1.7310   -0.9590 hc        1 MOL      0.070174
     31 H11         8.5230   -2.8260   -1.8010 hc        1 MOL      0.070174
     32 H12         7.9480   -4.0750    0.2230 hc        1 MOL      0.034673
     33 H13         9.0300   -2.9340    1.1160 hc        1 MOL      0.034673
     34 H14        10.1820   -4.4060   -1.2770 hc        1 MOL      0.031433
     35 H15        10.2680   -5.1260    0.4000 hc        1 MOL      0.031433
     36 H16        11.2030   -2.9570    1.0520 hx        1 MOL      0.062066
     37 H17        11.3470   -2.5830   -0.7420 hx        1 MOL      0.062066
     38 H18        13.3860   -3.4800    0.3580 hn        1 MOL      0.265098
     39 H19        12.5900   -4.9080    0.4800 hn        1 MOL      0.265098
     40 H20        12.9380   -4.2720   -1.0200 hn        1 MOL      0.265098
     41 N4          4.9990   -1.6150   -0.0290 n         1 MOL     -0.512632
     42 C13         3.5770   -1.9720   -0.2850 c3        1 MOL     -0.012901
     43 C14         3.1790   -1.6210   -1.7080 c         1 MOL      0.635931
     44 O6          3.2530   -0.4550   -2.1130 o         1 MOL     -0.482174
     45 C15         2.6360   -1.5310    0.8610 c3        1 MOL     -0.242115
     46 C16         1.1670   -1.9520    0.6470 c         1 MOL      0.616950
     47 O7          0.9540   -2.8940   -0.2010 o         1 MOL     -0.621301
     48 O8          0.1590   -1.4630    1.2820 o         1 MOL     -0.621301
     49 H21         5.2720   -0.8800    0.6000 hn        1 MOL      0.350051
     50 H22         3.4920   -3.0630   -0.2790 h1        1 MOL      0.122976
     51 H23         2.6940   -0.4540    1.0360 hc        1 MOL      0.094309
     52 H24         2.9540   -1.8790    1.8450 hc        1 MOL      0.094309
     53 N5          2.7480   -2.6480   -2.4590 n         1 MOL     -0.351481
     54 C17         2.3890   -2.4970   -3.8420 c3        1 MOL     -0.022766
     55 C18         1.1770   -1.5890   -4.0710 c         1 MOL      0.350266
     56 O9          0.9680   -1.0430   -5.1770 o         1 MOL     -0.551409
     57 H25         2.7310   -3.5820   -2.0920 hn        1 MOL      0.182523
     58 H26         2.1150   -3.4380   -4.3210 h1        1 MOL      0.063980
     59 H27         3.2760   -2.1830   -4.3780 h1        1 MOL      0.063980
     60 N6          0.3100   -1.3950   -3.1020 n         1 MOL      0.007400
     61 C19        -0.6860   -0.3350   -3.1940 c3        1 MOL     -0.066297
     62 C20        -0.1300    1.1510   -3.1170 c         1 MOL      0.481559
     63 O10        -0.8580    2.1130   -3.2400 o         1 MOL     -0.552638
     64 C21        -1.4630   -0.5340   -1.9540 c3        1 MOL     -0.483451
     65 C22        -2.2310   -1.8050   -2.0640 c         1 MOL      0.654764
     66 N7         -3.4620   -1.8550   -2.5160 n         1 MOL     -0.699301
     67 O11        -1.7320   -2.8580   -1.6860 o         1 MOL     -0.644727
     68 H28         0.5010   -1.9570   -2.2860 hn        1 MOL      0.160272
     69 H29        -1.3000   -0.4880   -4.0880 h1        1 MOL      0.097970
     70 H30        -2.1810    0.2780   -1.9840 hc        1 MOL      0.183329
     71 H31        -0.8580   -0.4450   -1.0430 hc        1 MOL      0.183329
     72 H32        -3.8120   -1.0560   -3.0240 hn        1 MOL      0.353889
     73 H33        -3.9750   -2.7230   -2.4540 hn        1 MOL      0.353889
     74 N8          1.1390    1.3100   -2.7700 n         1 MOL     -0.148436
     75 C23         1.7680    2.5720   -2.5010 c3        1 MOL     -0.116743
     76 C24         1.1170    3.1740   -1.2410 c         1 MOL      0.619945
     77 O12         1.1170    2.5680   -0.1880 o         1 MOL     -0.535223
     78 H34         1.6250    0.4560   -2.5560 hn        1 MOL      0.092065
     79 H35         1.6030    3.2880   -3.3070 h1        1 MOL      0.086194
     80 H36         2.8480    2.5540   -2.3860 h1        1 MOL      0.086194
     81 N9          0.5610    4.3550   -1.4070 n         1 MOL     -0.539645
     82 C25        -0.1780    5.1280   -0.3880 c3        1 MOL      0.050267
     83 C26        -1.4630    4.5130    0.1690 c         1 MOL      0.461809
     84 O13        -2.4220    5.2740    0.4170 o         1 MOL     -0.553805
     85 C27         0.7470    5.5500    0.7590 c3        1 MOL     -0.125931
     86 C28         2.0600    6.1790    0.2280 ca        1 MOL     -0.006354
     87 C29         2.1130    7.1800   -0.7280 ca        1 MOL     -0.113764
     88 C30         3.2120    5.5870    0.5960 ca        1 MOL     -0.113764
     89 C31         3.3430    7.6480   -1.2980 ca        1 MOL     -0.308717
     90 C32         4.4920    6.0320    0.1270 ca        1 MOL     -0.308717
     91 C33         4.5030    7.0980   -0.7890 ca        1 MOL      0.408238
     92 O14         5.6140    7.5280   -1.3020 oh        1 MOL     -0.535277
     93 H37         0.4460    4.6000   -2.3790 hn        1 MOL      0.333692
     94 H38        -0.5180    6.0160   -0.9260 h1        1 MOL      0.086709
     95 H39         0.9530    4.7810    1.5040 hc        1 MOL      0.094002
     96 H40         0.2290    6.3160    1.3330 hc        1 MOL      0.094002
     97 H41         1.1980    7.6420   -1.0730 ha        1 MOL      0.119694
     98 H42         3.1440    4.7660    1.2880 ha        1 MOL      0.119694
     99 H43         3.3900    8.4580   -2.0100 ha        1 MOL      0.158686
    100 H44         5.4150    5.6190    0.4990 ha        1 MOL      0.158686
    101 H45         6.3940    7.2570   -0.8080 ho        1 MOL      0.408070
    102 N10        -1.6010    3.1690    0.4120 n         1 MOL     -0.413871
    103 C34        -2.8230    2.5090    0.7980 c3        1 MOL      0.008157
    104 C35        -4.0340    2.3980   -0.1830 c         1 MOL      0.267975
    105 O15        -4.5180    1.3390   -0.5210 o         1 MOL     -0.490333
    106 C36        -3.2420    2.7590    2.2620 c3        1 MOL      0.175147
    107 C37        -2.3860    1.9920    3.2790 c3        1 MOL     -0.040655
    108 C38        -4.6830    2.2700    2.4870 c3        1 MOL     -0.484450
    109 C39        -1.1740    2.7540    3.6270 c3        1 MOL     -0.219474
    110 H46        -0.7590    2.6380    0.2390 hn        1 MOL      0.345920
    111 H47        -2.6290    1.4360    0.6790 h1        1 MOL      0.097365
    112 H48        -3.2100    3.8150    2.5250 hc        1 MOL      0.037251
    113 H49        -2.0500    1.0280    2.8930 hc        1 MOL      0.048838
    114 H50        -3.0700    1.8590    4.1090 hc        1 MOL      0.048838
    115 H51        -5.3510    2.8900    1.8900 hc        1 MOL      0.117328
    116 H52        -4.8710    1.2700    2.0910 hc        1 MOL      0.117328
    117 H53        -5.0630    2.4420    3.4910 hc        1 MOL      0.117328
    118 H54        -0.5290    2.6230    2.7540 hc        1 MOL      0.056908
    119 H55        -1.3560    3.8060    3.8090 hc        1 MOL      0.056908
    120 H56        -0.7920    2.3420    4.5610 hc        1 MOL      0.056908
    121 N11        -4.4350    3.4860   -0.8010 n         1 MOL     -0.046725
    122 C40        -5.4000    3.4540   -1.8900 c3        1 MOL     -0.342825
    123 C41        -6.7930    3.0140   -1.4440 c         1 MOL      0.763133
    124 O16        -7.4830    2.3880   -2.3180 o         1 MOL     -0.579624
    125 C42        -5.3360    4.7820   -2.6020 c3        1 MOL      0.092850
    126 O17        -5.8390    5.8430   -1.7830 oh        1 MOL     -0.593548
    127 H57        -4.2490    4.3520   -0.3260 hn        1 MOL      0.188014
    128 H58        -5.1030    2.6960   -2.6090 h1        1 MOL      0.142440
    129 H59        -6.0220    4.7470   -3.4530 h1        1 MOL      0.084912
    130 H60        -4.3330    5.0580   -2.9220 h1        1 MOL      0.084912
    131 H61        -5.1660    6.2340   -1.2190 ho        1 MOL      0.396678
    132 N12        -7.1120    3.1700   -0.1470 n         1 MOL     -0.378988
    133 C43        -8.4040    2.7330    0.4580 c3        1 MOL      0.157381
    134 C44        -8.7820    1.2810    0.1820 c         1 MOL      0.475008
    135 O18        -9.9310    0.9300    0.1650 o         1 MOL     -0.539949
    136 C45        -9.4510    3.7980    0.1800 c3        1 MOL     -0.281939
    137 H62        -6.4800    3.7610    0.3630 hn        1 MOL      0.216775
    138 H63        -8.2530    2.8280    1.5290 h1        1 MOL      0.070959
    139 H64       -10.3170    3.5620    0.7900 hc        1 MOL      0.077999
    140 H65        -9.0530    4.7770    0.4370 hc        1 MOL      0.077999
    141 H66        -9.6950    3.9950   -0.8610 hc        1 MOL      0.077999
    142 N13        -7.8080    0.4310    0.0330 n         1 MOL     -0.381739
    143 C46        -7.8220   -1.0020   -0.3360 c3        1 MOL      0.385965
    144 C47        -7.2050   -1.7780    0.8380 c         1 MOL      0.316213
    145 O19        -6.4600   -1.2320    1.6480 o         1 MOL     -0.405417
    146 C48        -6.8730   -1.1820   -1.5150 c3        1 MOL     -0.343535
    147 H67        -6.8690    0.7850    0.1040 hn        1 MOL      0.136114
    148 H68        -8.7990   -1.4260   -0.5800 h1        1 MOL      0.001019
    149 H69        -7.0890   -0.5610   -2.3850 hc        1 MOL      0.089930
    150 H70        -5.8810   -0.7960   -1.2650 hc        1 MOL      0.089930
    151 H71        -6.7280   -2.2130   -1.8280 hc        1 MOL      0.089930
    152 N14        -7.3970   -3.1050    0.8590 n         1 MOL     -0.514769
    153 C49        -6.6490   -4.0300    1.7190 c3        1 MOL      0.210037
    154 C50        -6.8100   -3.7480    3.2170 c         1 MOL      0.315881
    155 O20        -5.9650   -4.0840    4.0600 o         1 MOL     -0.451039
    156 C51        -5.2060   -4.2190    1.2300 c3        1 MOL      0.079837
    157 C52        -4.5760   -5.5980    1.3830 c3        1 MOL     -0.509026
    158 C53        -3.1610   -5.7860    0.7980 c         1 MOL      0.946507
    159 O21        -2.8630   -5.8900   -0.4120 o         1 MOL     -0.826848
    160 O22        -2.1810   -5.8400    1.5370 o         1 MOL     -0.826848
    161 H72        -8.0360   -3.4810    0.1690 hn        1 MOL      0.287970
    162 H73        -7.1940   -4.9640    1.6150 h1        1 MOL      0.035938
    163 H74        -4.5140   -3.4710    1.6330 hc        1 MOL      0.026457
    164 H75        -5.2010   -4.0150    0.1670 hc        1 MOL      0.026457
    165 H76        -5.1900   -6.4330    1.0580 hc        1 MOL      0.119716
    166 H77        -4.4950   -5.7190    2.4640 hc        1 MOL      0.119716
    167 N15        -7.9300   -3.1290    3.6920 n         1 MOL     -0.286120
    168 C54        -8.0050   -2.3550    4.9540 c3        1 MOL     -0.125749
    169 H78        -8.0450   -3.0430    5.7990 h1        1 MOL      0.087873
    170 H79        -7.1230   -1.7200    5.0440 h1        1 MOL      0.087873
    171 H80        -8.9010   -1.7350    4.9470 h1        1 MOL      0.087873
    172 H81        -8.6700   -3.0090    3.0160 hn        1 MOL      0.226560
    173 Ca1        -0.4490   -4.9500   -0.5000 Ca        1 MOL      1.798035
    174 O23        -0.1690   -7.4400   -1.0420 oh        1 MOL     -0.852526
    175 H82        -0.1270   -8.1150   -0.3640 ho        1 MOL      0.420250
    176 H83         0.1180   -7.8870   -1.8340 ho        1 MOL      0.420250
    177 O24         2.1000   -5.6800   -1.1430 oh        1 MOL     -0.852526
    178 H84         2.0890   -6.1830   -1.9550 ho        1 MOL      0.420250
    179 H85         3.0140   -5.6770   -0.8730 ho        1 MOL      0.420250
    180 O25         0.0620   -4.9820   -3.1800 oh        1 MOL     -0.852526
    181 H86         0.8590   -5.4030   -3.5260 ho        1 MOL      0.420250
    182 H87        -0.5640   -5.0370   -3.8960 ho        1 MOL      0.420250
    183 O26         0.7270   -5.2210    1.7280 oh        1 MOL     -0.852526
    184 H88         1.4840   -5.1760    2.3220 ho        1 MOL      0.420250
    185 H89         0.0040   -5.4990    2.2860 ho        1 MOL      0.420250
    186 O27        -1.9540   -3.0600    0.9560 oh        1 MOL     -0.852526
    187 H90        -2.7760   -2.5840    0.8990 ho        1 MOL      0.420250
    188 H91        -1.2790   -2.3840    1.0190 ho        1 MOL      0.420250
@<TRIPOS>BOND
     1    1    2 1   
     2    1    4 1   
     3    1    5 1   
     4    1    6 1   
     5    2    3 2   
     6    2    7 1   
     7    7    8 1   
     8    7   15 1   
     9    8    9 1   
    10    8   11 1   
    11    8   16 1   
    12    9   10 2   
    13    9   19 1   
    14   11   12 1   
    15   11   17 1   
    16   11   18 1   
    17   12   13 1   
    18   12   14 1   
    19   19   20 1   
    20   19   28 1   
    21   20   21 1   
    22   20   23 1   
    23   20   29 1   
    24   21   22 2   
    25   21   41 1   
    26   23   24 1   
    27   23   30 1   
    28   23   31 1   
    29   24   25 1   
    30   24   32 1   
    31   24   33 1   
    32   25   26 1   
    33   25   34 1   
    34   25   35 1   
    35   26   27 1   
    36   26   36 1   
    37   26   37 1   
    38   27   38 1   
    39   27   39 1   
    40   27   40 1   
    41   41   42 1   
    42   41   49 1   
    43   42   43 1   
    44   42   45 1   
    45   42   50 1   
    46   43   44 2   
    47   43   53 1   
    48   45   46 1   
    49   45   51 1   
    50   45   52 1   
    51   46   47 1   
    52   46   48 1   
    53   53   54 1   
    54   53   57 1   
    55   54   55 1   
    56   54   58 1   
    57   54   59 1   
    58   55   56 2   
    59   55   60 1   
    60   60   61 1   
    61   60   68 1   
    62   61   62 1   
    63   61   64 1   
    64   61   69 1   
    65   62   63 2   
    66   62   74 1   
    67   64   65 1   
    68   64   70 1   
    69   64   71 1   
    70   65   66 1   
    71   65   67 2   
    72   66   72 1   
    73   66   73 1   
    74   74   75 1   
    75   74   78 1   
    76   75   76 1   
    77   75   79 1   
    78   75   80 1   
    79   76   77 2   
    80   76   81 1   
    81   81   82 1   
    82   81   93 1   
    83   82   83 1   
    84   82   85 1   
    85   82   94 1   
    86   83   84 2   
    87   83  102 1   
    88   85   86 1   
    89   85   95 1   
    90   85   96 1   
    91   86   87 ar  
    92   86   88 ar  
    93   87   89 ar  
    94   87   97 1   
    95   88   90 ar  
    96   88   98 1   
    97   89   91 ar  
    98   89   99 1   
    99   90   91 ar  
   100   90  100 1   
   101   91   92 1   
   102   92  101 1   
   103  102  103 1   
   104  102  110 1   
   105  103  104 1   
   106  103  106 1   
   107  103  111 1   
   108  104  105 2   
   109  104  121 1   
   110  106  107 1   
   111  106  108 1   
   112  106  112 1   
   113  107  109 1   
   114  107  113 1   
   115  107  114 1   
   116  108  115 1   
   117  108  116 1   
   118  108  117 1   
   119  109  118 1   
   120  109  119 1   
   121  109  120 1   
   122  121  122 1   
   123  121  127 1   
   124  122  123 1   
   125  122  125 1   
   126  122  128 1   
   127  123  124 2   
   128  123  132 1   
   129  125  126 1   
   130  125  129 1   
   131  125  130 1   
   132  126  131 1   
   133  132  133 1   
   134  132  137 1   
   135  133  134 1   
   136  133  136 1   
   137  133  138 1   
   138  134  135 2   
   139  134  142 1   
   140  136  139 1   
   141  136  140 1   
   142  136  141 1   
   143  142  143 1   
   144  142  147 1   
   145  143  144 1   
   146  143  146 1   
   147  143  148 1   
   148  144  145 2   
   149  144  152 1   
   150  146  149 1   
   151  146  150 1   
   152  146  151 1   
   153  152  153 1   
   154  152  161 1   
   155  153  154 1   
   156  153  156 1   
   157  153  162 1   
   158  154  155 2   
   159  154  167 1   
   160  156  157 1   
   161  156  163 1   
   162  156  164 1   
   163  157  158 1   
   164  157  165 1   
   165  157  166 1   
   166  158  159 1   
   167  158  160 1   
   168  167  168 1   
   169  167  172 1   
   170  168  169 1   
   171  168  170 1   
   172  168  171 1   
   173  174  175 1   
   174  174  176 1   
   175  177  178 1   
   176  177  179 1   
   177  180  181 1   
   178  180  182 1   
   179  183  184 1   
   180  183  185 1   
   181  186  187 1   
   182  186  188 1   
@<TRIPOS>SUBSTRUCTURE
     1 MOL         1 TEMP              0 ****  ****    0 ROOT
