@<TRIPOS>MOLECULE
MOL
  189   185     1     0     0
SMALL
resp


@<TRIPOS>ATOM
      1 C1          9.2390    2.4650    1.0870 c3        1 MOL     -0.609071
      2 C2          8.1950    1.5680    0.3260 c         1 MOL      0.696392
      3 O1          7.1460    1.1990    0.8720 o         1 MOL     -0.670713
      4 H1          8.8020    3.4460    1.2800 hc        1 MOL      0.161969
      5 H2          9.5020    1.9930    2.0340 hc        1 MOL      0.161969
      6 H3         10.1340    2.5800    0.4760 hc        1 MOL      0.161969
      7 N1          8.5750    1.0630   -0.8690 n         1 MOL     -0.422414
      8 C3          7.6660    0.3800   -1.8240 c3        1 MOL     -0.051482
      9 C4          7.3860   -1.0660   -1.3950 c         1 MOL      0.496421
     10 O2          7.8370   -1.9540   -2.1240 o         1 MOL     -0.488087
     11 C5          8.1230    0.4550   -3.3190 c3        1 MOL     -0.035578
     12 C6          9.6320    0.3430   -3.5930 c         1 MOL      0.678495
     13 O3          9.8850   -0.4210   -4.5690 o         1 MOL     -0.650277
     14 O4         10.4610    0.9730   -2.9240 o         1 MOL     -0.650277
     15 H4          9.4800    1.2320   -1.3040 hn        1 MOL      0.217911
     16 H5          6.7140    0.8950   -1.7670 h1        1 MOL      0.064136
     17 H6          7.9140    1.4220   -3.7870 hc        1 MOL      0.033106
     18 H7          7.5590   -0.2520   -3.9230 hc        1 MOL      0.033106
     19 N2          6.8570   -1.3810   -0.1910 n         1 MOL     -0.220901
     20 C7          6.6210   -2.6930    0.2880 c3        1 MOL     -0.023734
     21 C8          5.1210   -3.1770    0.2060 c         1 MOL      0.566817
     22 O5          4.9700   -4.3510   -0.1330 o         1 MOL     -0.565185
     23 C9          7.2000   -2.9300    1.7090 c3        1 MOL      0.024962
     24 C10         8.7330   -2.8350    1.9940 c3        1 MOL     -0.112804
     25 C11         9.0570   -3.0830    3.5040 c3        1 MOL     -0.043689
     26 C12        10.6300   -3.1590    3.7820 c3        1 MOL     -0.125541
     27 N3         11.3860   -1.8930    3.5030 n4        1 MOL     -0.427065
     28 H8          6.6730   -0.5870    0.4010 hn        1 MOL      0.190309
     29 H9          7.2570   -3.3310   -0.3450 h1        1 MOL      0.069679
     30 H10         6.9530   -3.9090    2.1080 hc        1 MOL      0.018015
     31 H11         6.6700   -2.3430    2.4610 hc        1 MOL      0.018015
     32 H12         9.1550   -1.8840    1.6750 hc        1 MOL      0.060312
     33 H13         9.1640   -3.6650    1.4340 hc        1 MOL      0.060312
     34 H14         8.6530   -4.0170    3.8830 hc        1 MOL      0.055742
     35 H15         8.5950   -2.3360    4.1520 hc        1 MOL      0.055742
     36 H16        10.9200   -4.0660    3.2440 hx        1 MOL      0.143641
     37 H17        10.7100   -3.4870    4.8120 hx        1 MOL      0.143641
     38 H18        11.2760   -1.7590    2.5050 hn        1 MOL      0.346091
     39 H19        11.0060   -1.1230    4.0470 hn        1 MOL      0.346091
     40 H20        12.3780   -1.9890    3.6690 hn        1 MOL      0.346091
     41 N4          3.9830   -2.5610    0.5240 n         1 MOL     -0.398115
     42 C13         3.8500   -1.4000    1.3530 c3        1 MOL      0.113316
     43 C14         3.7490   -0.1460    0.4460 c         1 MOL      0.228263
     44 O6          3.5900   -0.3060   -0.7780 o         1 MOL     -0.481027
     45 C15         2.7370   -1.5180    2.3460 c3        1 MOL     -0.360322
     46 C16         1.3360   -1.9190    1.6790 c         1 MOL      0.773719
     47 O7          0.5840   -0.9650    1.3060 o         1 MOL     -0.691991
     48 O8          0.9950   -3.1330    1.4640 o         1 MOL     -0.691991
     49 H21         3.1050   -3.0400    0.4300 hn        1 MOL      0.331696
     50 H22         4.8000   -1.2460    1.8490 h1        1 MOL      0.040954
     51 H23         2.6220   -0.5900    2.8960 hc        1 MOL      0.066153
     52 H24         2.9900   -2.4090    2.9270 hc        1 MOL      0.066153
     53 N5          3.7890    1.0670    0.9950 n         1 MOL      0.012510
     54 C17         3.6630    2.3430    0.2090 c3        1 MOL     -0.323084
     55 C18         2.3790    2.5140   -0.5440 c         1 MOL      0.442627
     56 O9          1.3830    1.9000   -0.3200 o         1 MOL     -0.211261
     57 H25         4.1390    1.1750    1.9410 hn        1 MOL      0.208855
     58 H26         4.3500    2.2520   -0.6300 h1        1 MOL      0.148153
     59 H27         3.8380    3.2010    0.8490 h1        1 MOL      0.148153
     60 N6          2.3880    3.5690   -1.4310 n         1 MOL     -0.519697
     61 C19         1.2800    4.0930   -2.2570 c3        1 MOL      0.206790
     62 C20         1.2930    5.6340   -2.5500 c         1 MOL      0.473125
     63 O10         2.3720    6.2490   -2.6050 o         1 MOL     -0.549032
     64 C21         1.2520    3.2520   -3.6160 c3        1 MOL     -0.132244
     65 C22         0.6430    1.8660   -3.3680 c         1 MOL      0.680464
     66 O11        -0.4060    1.7350   -2.7290 o         1 MOL     -0.686614
     67 O12         1.2210    0.8470   -3.8180 o         1 MOL     -0.686614
     68 H28         3.3400    3.8140   -1.6460 hn        1 MOL      0.299740
     69 H29         0.4100    3.9470   -1.6260 h1        1 MOL     -0.031666
     70 H30         2.2500    2.9700   -3.9170 hc        1 MOL      0.042447
     71 H31         0.7770    3.7490   -4.4590 hc        1 MOL      0.042447
     72 N7          0.2080    6.3150   -2.7180 n         1 MOL     -0.473909
     73 C23        -1.1760    5.8400   -2.5890 c3        1 MOL      0.070081
     74 C24        -1.5320    5.7160   -1.1400 c         1 MOL      0.606854
     75 O13        -0.8780    6.2150   -0.2390 o         1 MOL     -0.515964
     76 H32         0.3070    7.3150   -2.6530 hn        1 MOL      0.320708
     77 H33        -1.2730    4.8760   -3.0950 h1        1 MOL      0.052582
     78 H34        -1.8680    6.4920   -3.1250 h1        1 MOL      0.052582
     79 N8         -2.6620    5.0270   -0.8200 n         1 MOL     -0.756517
     80 C25        -3.0230    4.5730    0.5770 c3        1 MOL      0.648454
     81 C26        -2.1630    3.4180    1.0600 c         1 MOL      0.396988
     82 O14        -1.5940    2.6380    0.1910 o         1 MOL     -0.670627
     83 C27        -4.5450    4.3290    0.7050 c3        1 MOL      0.116798
     84 C28        -5.2520    3.3490   -0.0980 c3        1 MOL     -0.120300
     85 O15        -5.1120    5.6500    0.5440 oh        1 MOL     -0.639611
     86 H35        -3.1670    4.6300   -1.5930 hn        1 MOL      0.341167
     87 H36        -2.8780    5.3890    1.2820 h1        1 MOL     -0.015591
     88 H37        -4.7080    4.0230    1.7350 h1        1 MOL     -0.018971
     89 H38        -6.0670    5.5620    0.5380 ho        1 MOL      0.401789
     90 H39        -4.8900    2.3420    0.1110 hc        1 MOL      0.029451
     91 H40        -6.3110    3.2550    0.1320 hc        1 MOL      0.029451
     92 H41        -5.1250    3.4930   -1.1700 hc        1 MOL      0.029451
     93 N9         -2.0450    3.1680    2.3630 n         1 MOL     -0.484158
     94 C29        -1.3780    2.0960    3.0750 c3        1 MOL      0.277373
     95 C30        -1.9760    0.7120    2.7980 c         1 MOL      0.461322
     96 O16        -2.1320    0.3600    1.6110 o         1 MOL     -0.438871
     97 C31         0.1980    2.1470    3.1480 c3        1 MOL      0.205578
     98 C32         0.9090    3.5380    3.3460 c3        1 MOL     -0.210928
     99 C33         0.6950    1.2310    4.2490 c3        1 MOL     -0.361687
    100 C34         0.7190    4.6190    2.2620 c3        1 MOL      0.039709
    101 H42        -2.5400    3.7690    3.0090 hn        1 MOL      0.251391
    102 H43        -1.6070    2.2600    4.1290 h1        1 MOL     -0.011259
    103 H44         0.5740    1.7790    2.1880 hc        1 MOL     -0.162295
    104 H45         1.9790    3.3190    3.3650 hc        1 MOL      0.053872
    105 H46         0.6610    3.9750    4.3090 hc        1 MOL      0.053872
    106 H47         0.4070    1.7120    5.1820 hc        1 MOL      0.090406
    107 H48         0.2710    0.2450    4.0360 hc        1 MOL      0.090406
    108 H49         1.7720    1.1160    4.1170 hc        1 MOL      0.090406
    109 H50        -0.2300    5.1580    2.3400 hc        1 MOL      0.008024
    110 H51         1.4890    5.3930    2.3420 hc        1 MOL      0.008024
    111 H52         0.7610    4.1600    1.2820 hc        1 MOL      0.008024
    112 N10        -2.3030   -0.0750    3.8010 n         1 MOL     -0.654707
    113 C35        -2.5070   -1.5120    3.5430 c3        1 MOL     -0.010225
    114 C36        -3.7240   -1.8580    2.7180 c         1 MOL      0.410177
    115 O17        -3.7540   -2.9960    2.2770 o         1 MOL     -0.546099
    116 C37        -2.5370   -2.3160    4.8520 c3        1 MOL      0.401081
    117 C38        -3.3940   -1.8980    6.0150 c3        1 MOL     -0.245021
    118 O18        -1.1630   -2.3130    5.4000 oh        1 MOL     -0.642184
    119 H53        -2.1130    0.2290    4.7360 hn        1 MOL      0.370731
    120 H54        -1.5990   -1.8050    3.0210 h1        1 MOL      0.082372
    121 H55        -2.6870   -3.3800    4.6500 h1        1 MOL      0.031880
    122 H56        -0.5940   -2.8600    4.8540 ho        1 MOL      0.398783
    123 H57        -4.4160   -1.8210    5.6420 hc        1 MOL      0.069868
    124 H58        -3.4270   -2.5880    6.8590 hc        1 MOL      0.069868
    125 H59        -3.0830   -0.8950    6.3030 hc        1 MOL      0.069868
    126 N11        -4.7630   -0.9710    2.6680 n         1 MOL     -0.106433
    127 C39        -6.0330   -1.2460    2.0810 c3        1 MOL     -0.047022
    128 C40        -5.9440   -1.4010    0.5430 c         1 MOL      0.590046
    129 O19        -5.2790   -0.5850   -0.0990 o         1 MOL     -0.515351
    130 C41        -6.9870    0.0070    2.4120 c3        1 MOL      0.234836
    131 C42        -7.3890    0.0270    3.9160 c3        1 MOL     -0.548888
    132 O20        -6.2430    1.2400    2.2200 oh        1 MOL     -0.518617
    133 H60        -4.5610    0.0000    2.8810 hn        1 MOL      0.177408
    134 H61        -6.4380   -2.1200    2.5810 h1        1 MOL      0.070215
    135 H62        -7.8620   -0.0950    1.7720 h1        1 MOL     -0.050678
    136 H63        -6.9090    1.9240    2.2970 ho        1 MOL      0.395579
    137 H64        -7.9560    0.9190    4.1830 hc        1 MOL      0.143177
    138 H65        -7.9600   -0.8660    4.1770 hc        1 MOL      0.143177
    139 H66        -6.4980   -0.2310    4.4810 hc        1 MOL      0.143177
    140 N12        -6.7570   -2.2580   -0.0680 n         1 MOL     -0.551863
    141 C43        -6.9170   -2.5170   -1.5070 c3        1 MOL      0.314113
    142 C44        -5.4990   -2.5470   -2.2300 c         1 MOL      0.434564
    143 O21        -5.2340   -1.8650   -3.2380 o         1 MOL     -0.474467
    144 C45        -7.9090   -1.4100   -1.9320 c3        1 MOL     -0.700307
    145 C46        -9.4050   -1.6640   -1.5280 c3        1 MOL      0.418856
    146 C47       -10.3420   -0.5890   -2.0390 c3        1 MOL     -0.143012
    147 C48       -10.2490    0.5780   -1.0830 c3        1 MOL      0.074478
    148 N13       -11.0480    0.3900    0.1500 n4        1 MOL     -0.274465
    149 H67        -7.3510   -2.8410    0.5040 hn        1 MOL      0.284888
    150 H68        -7.3100   -3.5300   -1.6190 h1        1 MOL      0.059858
    151 H69        -7.9610   -1.4270   -3.0260 hc        1 MOL      0.198224
    152 H70        -7.6350   -0.4290   -1.5420 hc        1 MOL      0.198224
    153 H71        -9.4690   -1.6050   -0.4450 hc        1 MOL     -0.091767
    154 H72        -9.8120   -2.6400   -1.7750 hc        1 MOL     -0.091767
    155 H73       -11.3360   -1.0190   -2.1060 hc        1 MOL      0.075788
    156 H74       -10.0310   -0.3240   -3.0530 hc        1 MOL      0.075788
    157 H75       -10.6290    1.4620   -1.6030 hx        1 MOL      0.058202
    158 H76        -9.2210    0.7950   -0.7840 hx        1 MOL      0.058202
    159 H77       -11.9310   -0.0150   -0.1210 hn        1 MOL      0.194395
    160 H78       -10.5630   -0.2710    0.7410 hn        1 MOL      0.194395
    161 H79       -11.3150    1.1970    0.7050 hn        1 MOL      0.194395
    162 N14        -4.6030   -3.4500   -1.7350 n         1 MOL     -0.511684
    163 C49        -3.1370   -3.2630   -2.0700 c3        1 MOL      0.390520
    164 C50        -2.2620   -3.1200   -0.8280 c         1 MOL      0.315478
    165 O22        -1.6440   -2.1080   -0.6500 o         1 MOL     -0.582041
    166 C51        -2.5150   -4.2610   -3.0570 c3        1 MOL     -0.051102
    167 C52        -3.1980   -4.2100   -4.4240 c3        1 MOL     -0.149515
    168 C53        -2.7250   -5.1730   -5.5220 c         1 MOL      0.614938
    169 O23        -1.4960   -5.2280   -5.7790 o         1 MOL     -0.572409
    170 O24        -3.5080   -5.9820   -6.1040 o         1 MOL     -0.572409
    171 H80        -4.8500   -3.9810   -0.9170 hn        1 MOL      0.240011
    172 H81        -2.9770   -2.3200   -2.6030 h1        1 MOL      0.020443
    173 H82        -2.6130   -5.2720   -2.6630 hc        1 MOL      0.059555
    174 H83        -1.4580   -4.0030   -3.1470 hc        1 MOL      0.059555
    175 H84        -3.1110   -3.1890   -4.8090 hc        1 MOL      0.034470
    176 H85        -4.2720   -4.3960   -4.3670 hc        1 MOL      0.034470
    177 N15        -2.2200   -4.0520    0.1090 n         1 MOL     -0.140667
    178 C54        -2.6130   -5.4660    0.0070 c3        1 MOL     -0.193975
    179 H86        -3.4880   -5.6460    0.6310 h1        1 MOL      0.073667
    180 H87        -2.8520   -5.7030   -1.0310 h1        1 MOL      0.073667
    181 H88        -1.7910   -6.0980    0.3440 h1        1 MOL      0.073667
    182 H89        -1.7720   -3.7110    0.9420 hn        1 MOL      0.299489
    183 Ca1        -0.8100    0.2890   -0.5000 Ca        1 MOL      1.669037
    184 O25        -3.3150    0.5320   -1.5300 oh        1 MOL     -0.916253
    185 H90        -3.7840    1.1450   -2.0920 ho        1 MOL      0.438375
    186 H91        -4.0140    0.0560   -1.0820 ho        1 MOL      0.438375
    187 O26         1.2500   -0.8710   -1.9510 oh        1 MOL     -0.916253
    188 H92         2.0680   -0.6090   -1.5350 ho        1 MOL      0.438375
    189 H93         1.2490   -0.4090   -2.7860 ho        1 MOL      0.438375
@<TRIPOS>BOND
     1    1    2 1   
     2    1    4 1   
     3    1    5 1   
     4    1    6 1   
     5    2    3 2   
     6    2    7 1   
     7    7    8 1   
     8    7   15 1   
     9    8    9 1   
    10    8   11 1   
    11    8   16 1   
    12    9   10 2   
    13    9   19 1   
    14   11   12 1   
    15   11   17 1   
    16   11   18 1   
    17   12   13 1   
    18   12   14 1   
    19   19   20 1   
    20   19   28 1   
    21   20   21 1   
    22   20   23 1   
    23   20   29 1   
    24   21   22 2   
    25   21   41 1   
    26   23   24 1   
    27   23   30 1   
    28   23   31 1   
    29   24   25 1   
    30   24   32 1   
    31   24   33 1   
    32   25   26 1   
    33   25   34 1   
    34   25   35 1   
    35   26   27 1   
    36   26   36 1   
    37   26   37 1   
    38   27   38 1   
    39   27   39 1   
    40   27   40 1   
    41   41   42 1   
    42   41   49 1   
    43   42   43 1   
    44   42   45 1   
    45   42   50 1   
    46   43   44 2   
    47   43   53 1   
    48   45   46 1   
    49   45   51 1   
    50   45   52 1   
    51   46   47 1   
    52   46   48 1   
    53   53   54 1   
    54   53   57 1   
    55   54   55 1   
    56   54   58 1   
    57   54   59 1   
    58   55   56 2   
    59   55   60 1   
    60   60   61 1   
    61   60   68 1   
    62   61   62 1   
    63   61   64 1   
    64   61   69 1   
    65   62   63 2   
    66   62   72 1   
    67   64   65 1   
    68   64   70 1   
    69   64   71 1   
    70   65   66 1   
    71   65   67 1   
    72   72   73 1   
    73   72   76 1   
    74   73   74 1   
    75   73   77 1   
    76   73   78 1   
    77   74   75 2   
    78   74   79 1   
    79   79   80 1   
    80   79   86 1   
    81   80   81 1   
    82   80   83 1   
    83   80   87 1   
    84   81   82 2   
    85   81   93 1   
    86   83   84 1   
    87   83   85 1   
    88   83   88 1   
    89   84   90 1   
    90   84   91 1   
    91   84   92 1   
    92   85   89 1   
    93   93   94 1   
    94   93  101 1   
    95   94   95 1   
    96   94   97 1   
    97   94  102 1   
    98   95   96 2   
    99   95  112 1   
   100   97   98 1   
   101   97   99 1   
   102   97  103 1   
   103   98  100 1   
   104   98  104 1   
   105   98  105 1   
   106   99  106 1   
   107   99  107 1   
   108   99  108 1   
   109  100  109 1   
   110  100  110 1   
   111  100  111 1   
   112  112  113 1   
   113  112  119 1   
   114  113  114 1   
   115  113  116 1   
   116  113  120 1   
   117  114  115 2   
   118  114  126 1   
   119  116  117 1   
   120  116  118 1   
   121  116  121 1   
   122  117  123 1   
   123  117  124 1   
   124  117  125 1   
   125  118  122 1   
   126  126  127 1   
   127  126  133 1   
   128  127  128 1   
   129  127  130 1   
   130  127  134 1   
   131  128  129 2   
   132  128  140 1   
   133  130  131 1   
   134  130  132 1   
   135  130  135 1   
   136  131  137 1   
   137  131  138 1   
   138  131  139 1   
   139  132  136 1   
   140  140  141 1   
   141  140  149 1   
   142  141  142 1   
   143  141  144 1   
   144  141  150 1   
   145  142  143 2   
   146  142  162 1   
   147  144  145 1   
   148  144  151 1   
   149  144  152 1   
   150  145  146 1   
   151  145  153 1   
   152  145  154 1   
   153  146  147 1   
   154  146  155 1   
   155  146  156 1   
   156  147  148 1   
   157  147  157 1   
   158  147  158 1   
   159  148  159 1   
   160  148  160 1   
   161  148  161 1   
   162  162  163 1   
   163  162  171 1   
   164  163  164 1   
   165  163  166 1   
   166  163  172 1   
   167  164  165 2   
   168  164  177 1   
   169  166  167 1   
   170  166  173 1   
   171  166  174 1   
   172  167  168 1   
   173  167  175 1   
   174  167  176 1   
   175  168  169 1   
   176  168  170 1   
   177  177  178 1   
   178  177  182 1   
   179  178  179 1   
   180  178  180 1   
   181  178  181 1   
   182  184  185 1   
   183  184  186 1   
   184  187  188 1   
   185  187  189 1   
@<TRIPOS>SUBSTRUCTURE
     1 MOL         1 TEMP              0 ****  ****    0 ROOT
