@<TRIPOS>MOLECULE
MOL
  192   187     1     0     0
SMALL
resp


@<TRIPOS>ATOM
      1 C1        -11.1650   -0.4340   -1.0750 c3        1 MOL     -0.536265
      2 C2         -9.6150   -0.5590   -0.8130 c         1 MOL      0.676422
      3 O1         -8.8730   -1.2190   -1.5140 o         1 MOL     -0.597025
      4 H1        -11.4510   -1.1050   -1.8850 hc        1 MOL      0.138559
      5 H2        -11.7100   -0.7020   -0.1700 hc        1 MOL      0.138559
      6 H3        -11.4060    0.5920   -1.3540 hc        1 MOL      0.138559
      7 N1         -9.1920   -0.0170    0.2910 n         1 MOL     -0.571558
      8 C3         -7.7710   -0.0830    0.8430 c3        1 MOL      0.116329
      9 C4         -7.3580   -1.5220    1.2850 c         1 MOL      0.462736
     10 O2         -7.5950   -1.9160    2.4070 o         1 MOL     -0.516791
     11 C5         -7.6240    0.8800    1.9710 c3        1 MOL     -0.059312
     12 C6         -7.8980    2.2910    1.5230 c         1 MOL      0.632728
     13 O3         -7.8260    2.6120    0.3070 o         1 MOL     -0.642891
     14 O4         -7.9480    3.2070    2.3710 o         1 MOL     -0.642891
     15 H4         -9.9520    0.5000    0.7110 hn        1 MOL      0.339556
     16 H5         -7.1380    0.2680    0.0350 h1        1 MOL      0.018418
     17 H6         -6.5690    0.8090    2.2430 hc        1 MOL      0.034682
     18 H7         -8.3210    0.7910    2.8060 hc        1 MOL      0.034682
     19 N2         -6.6740   -2.2990    0.4420 n         1 MOL     -0.288162
     20 C7         -6.0940   -3.6990    0.5980 c3        1 MOL      0.160672
     21 C8         -4.7270   -3.8820    1.2900 c         1 MOL      0.620157
     22 O5         -4.7120   -4.7270    2.1900 o         1 MOL     -0.560336
     23 C9         -6.1970   -4.3080   -0.8170 c3        1 MOL     -0.373714
     24 C10        -7.6650   -4.5670   -1.2750 c3        1 MOL      0.263631
     25 C11        -7.8030   -5.2620   -2.6340 c3        1 MOL     -0.156307
     26 C12        -9.2140   -5.8640   -2.9340 c3        1 MOL      0.179934
     27 N3         -9.2220   -6.3760   -4.3690 n4        1 MOL     -0.342960
     28 H8         -6.5430   -1.9100   -0.4770 hn        1 MOL      0.245690
     29 H9         -6.7050   -4.2750    1.2880 h1        1 MOL      0.041819
     30 H10        -5.7520   -5.2970   -0.6980 hc        1 MOL      0.090192
     31 H11        -5.6380   -3.7370   -1.5560 hc        1 MOL      0.090192
     32 H12        -8.1300   -3.5920   -1.3760 hc        1 MOL     -0.031414
     33 H13        -8.2530   -5.1520   -0.5670 hc        1 MOL     -0.031414
     34 H14        -7.1680   -6.1480   -2.6410 hc        1 MOL      0.044040
     35 H15        -7.5350   -4.5120   -3.3820 hc        1 MOL      0.044040
     36 H16        -9.9840   -5.1040   -2.7780 hx        1 MOL      0.049061
     37 H17        -9.4450   -6.6590   -2.2270 hx        1 MOL      0.049061
     38 H18        -8.7220   -7.2500   -4.4930 hn        1 MOL      0.271620
     39 H19       -10.1260   -6.4170   -4.8310 hn        1 MOL      0.271620
     40 H20        -8.7110   -5.7050   -4.9180 hn        1 MOL      0.271620
     41 N4         -3.6500   -3.1790    0.9690 n         1 MOL     -0.646895
     42 C13        -3.5460   -1.9990    0.0190 c3        1 MOL      0.362580
     43 C14        -3.8240   -0.6480    0.7010 c         1 MOL      0.103936
     44 O6         -3.7970   -0.4970    1.9600 o         1 MOL     -0.350735
     45 C15        -2.3720   -2.1310   -0.9880 c3        1 MOL     -0.180607
     46 C16        -1.0550   -2.2790   -0.2600 c         1 MOL      0.717218
     47 O7         -0.7220   -1.4820    0.6380 o         1 MOL     -0.671084
     48 O8         -0.3380   -3.2660   -0.4970 o         1 MOL     -0.671084
     49 H21        -2.9070   -3.3880    1.6110 hn        1 MOL      0.375910
     50 H22        -4.4000   -2.0510   -0.6510 h1        1 MOL     -0.039239
     51 H23        -2.3610   -1.2970   -1.6930 hc        1 MOL      0.037909
     52 H24        -2.5540   -3.0460   -1.5430 hc        1 MOL      0.037909
     53 N5         -4.1010    0.3470   -0.1370 n         1 MOL     -0.326064
     54 C17        -4.2760    1.7930    0.1480 c3        1 MOL     -0.029210
     55 C18        -2.9750    2.4980    0.4330 c         1 MOL      0.828171
     56 O9         -1.9420    1.8620    0.6100 o         1 MOL     -0.686659
     57 H25        -4.0220    0.2000   -1.1290 hn        1 MOL      0.288992
     58 H26        -5.0620    2.0670    0.8500 h1        1 MOL      0.081096
     59 H27        -4.6540    2.1100   -0.8280 h1        1 MOL      0.081096
     60 N6         -3.0440    3.8260    0.5180 n         1 MOL     -0.892587
     61 C19        -1.9830    4.7280    1.0920 c3        1 MOL      0.875685
     62 C20        -2.3300    6.2380    0.8190 c         1 MOL      0.296146
     63 O10        -3.4700    6.5270    0.5040 o         1 MOL     -0.507417
     64 C21        -1.9950    4.6950    2.5730 c3        1 MOL     -0.385934
     65 C22        -1.4560    3.4130    3.0500 c         1 MOL      0.746532
     66 O11        -0.2580    3.0940    2.7940 o         1 MOL     -0.670064
     67 O12        -2.0650    2.7440    3.8830 o         1 MOL     -0.670064
     68 H28        -3.9800    4.1820    0.3410 hn        1 MOL      0.361151
     69 H29        -0.9770    4.4580    0.7660 h1        1 MOL     -0.264880
     70 H30        -3.0450    4.8340    2.8400 hc        1 MOL      0.094294
     71 H31        -1.2940    5.4230    2.9920 hc        1 MOL      0.094294
     72 N7         -1.4690    7.2020    0.9050 n         1 MOL     -0.386927
     73 C23        -0.0030    7.2260    1.1900 c3        1 MOL     -0.081081
     74 C24         0.7620    6.5040    0.0350 c         1 MOL      0.648785
     75 O13         0.5090    6.7860   -1.1200 o         1 MOL     -0.532921
     76 H32        -1.8090    8.0890    0.5730 hn        1 MOL      0.323835
     77 H33         0.2690    6.6350    2.0760 h1        1 MOL      0.068768
     78 H34         0.3280    8.2550    1.3650 h1        1 MOL      0.068768
     79 N8          1.7690    5.7370    0.4000 n         1 MOL     -0.594172
     80 C25         2.4080    4.8170   -0.6040 c3        1 MOL     -0.004784
     81 C26         1.4950    3.6150   -0.9560 c         1 MOL      0.550299
     82 O14         0.9650    3.0240   -0.0530 o         1 MOL     -0.463075
     83 C27         3.7930    4.3090   -0.0630 c3        1 MOL      0.296695
     84 C28         4.5050    3.4450   -1.0530 c3        1 MOL     -0.377579
     85 O15         3.7060    3.6410    1.1610 oh        1 MOL     -0.559427
     86 H35         1.9690    5.6410    1.3850 hn        1 MOL      0.318864
     87 H36         2.5670    5.4120   -1.5070 h1        1 MOL      0.080582
     88 H37         4.3970    5.1890    0.1510 h1        1 MOL      0.021444
     89 H38         4.3710    4.1310    1.6540 ho        1 MOL      0.408407
     90 H39         4.4680    4.0430   -1.9630 hc        1 MOL      0.102414
     91 H40         5.5520    3.3590   -0.7550 hc        1 MOL      0.102414
     92 H41         3.9680    2.4930   -1.1330 hc        1 MOL      0.102414
     93 N9          1.4500    3.2200   -2.2070 n         1 MOL     -0.428869
     94 C29         0.7290    1.9910   -2.7130 c3        1 MOL      0.020414
     95 C30         1.2570    0.6280   -2.2800 c         1 MOL      0.330298
     96 O16         1.1710    0.4050   -1.0060 o         1 MOL     -0.574389
     97 C31        -0.8280    1.9590   -2.6200 c3        1 MOL      0.397990
     98 C32        -1.5650    3.3420   -2.6110 c3        1 MOL     -0.120548
     99 C33        -1.3910    1.0730   -3.7710 c3        1 MOL     -0.460183
    100 C34        -1.1390    4.4090   -3.6140 c3        1 MOL     -0.059146
    101 H42         2.0400    3.7370   -2.8490 hn        1 MOL      0.272744
    102 H43         0.9720    2.0990   -3.7710 h1        1 MOL      0.038226
    103 H44        -1.1920    1.4480   -1.7280 hc        1 MOL     -0.123529
    104 H45        -1.4310    3.6570   -1.5750 hc        1 MOL      0.067179
    105 H46        -2.6270    3.1630   -2.7610 hc        1 MOL      0.067179
    106 H47        -1.2900    1.6160   -4.7130 hc        1 MOL      0.093473
    107 H48        -0.8010    0.1610   -3.8780 hc        1 MOL      0.093473
    108 H49        -2.4510    0.8660   -3.6750 hc        1 MOL      0.093473
    109 H50        -0.7220    3.9530   -4.5100 hc        1 MOL      0.007819
    110 H51        -2.0510    4.9590   -3.8330 hc        1 MOL      0.007819
    111 H52        -0.3980    5.1210   -3.2420 hc        1 MOL      0.007819
    112 N10         1.7980   -0.2820   -3.1070 n         1 MOL     -0.102279
    113 C35         2.3120   -1.5770   -2.7470 c3        1 MOL     -0.113227
    114 C36         3.8580   -1.5280   -2.9130 c         1 MOL      0.464383
    115 O17         4.4510   -2.5820   -2.7740 o         1 MOL     -0.566181
    116 C37         1.7210   -2.6980   -3.6270 c3        1 MOL      0.345321
    117 C38         1.6970   -2.4020   -5.1500 c3        1 MOL     -0.297850
    118 O18         0.3420   -2.7620   -3.3390 oh        1 MOL     -0.613465
    119 H53         1.8420    0.0590   -4.0590 hn        1 MOL      0.191992
    120 H54         2.1600   -1.8550   -1.7080 h1        1 MOL      0.207121
    121 H55         2.1990   -3.6240   -3.2980 h1        1 MOL      0.036360
    122 H56         0.1840   -2.9940   -2.4230 ho        1 MOL      0.350999
    123 H57         1.2240   -1.4250   -5.2920 hc        1 MOL      0.077251
    124 H58         2.6840   -2.3360   -5.5990 hc        1 MOL      0.077251
    125 H59         1.2380   -3.2510   -5.6540 hc        1 MOL      0.077251
    126 N11         4.5640   -0.4320   -3.2030 n         1 MOL     -0.270094
    127 C39         6.0540   -0.4120   -3.2050 c3        1 MOL      0.014684
    128 C40         6.6830   -0.7450   -1.8350 c         1 MOL      0.624255
    129 O19         7.0450    0.2110   -1.1310 o         1 MOL     -0.503078
    130 C41         6.6010    0.8340   -3.7480 c3        1 MOL      0.252889
    131 C42         6.6820    0.8640   -5.2970 c3        1 MOL     -0.364941
    132 O20         5.8500    1.9400   -3.3700 oh        1 MOL     -0.575181
    133 H60         4.0610    0.4350   -3.3480 hn        1 MOL      0.179688
    134 H61         6.4140   -1.2500   -3.8060 h1        1 MOL      0.050515
    135 H62         7.5760    0.9980   -3.2940 h1        1 MOL      0.011156
    136 H63         6.2280    2.6450   -3.8850 ho        1 MOL      0.396767
    137 H64         5.6880    0.8180   -5.7380 hc        1 MOL      0.093359
    138 H65         7.0770    1.8230   -5.6340 hc        1 MOL      0.093359
    139 H66         7.3620    0.0850   -5.6370 hc        1 MOL      0.093359
    140 N12         6.6030   -2.0480   -1.3360 n         1 MOL     -0.705414
    141 C43         6.7530   -2.4560    0.0330 c3        1 MOL      0.298102
    142 C44         5.5750   -1.9700    0.8690 c         1 MOL      0.503953
    143 O21         5.1030   -0.8600    0.7220 o         1 MOL     -0.496139
    144 C45         8.1560   -2.2080    0.5920 c3        1 MOL     -0.174536
    145 C46         9.2810   -2.6930   -0.3570 c3        1 MOL     -0.108125
    146 C47        10.6950   -2.6220    0.2020 c3        1 MOL      0.056170
    147 C48        11.1280   -1.1860    0.2230 c3        1 MOL      0.022677
    148 N13        12.6380   -1.0110    0.1860 n4        1 MOL     -0.258946
    149 H67         6.1210   -2.7720   -1.8490 hn        1 MOL      0.362710
    150 H68         6.6840   -3.5380    0.1840 h1        1 MOL      0.012458
    151 H69         8.1290   -2.7400    1.5350 hc        1 MOL      0.060570
    152 H70         8.3050   -1.1400    0.7490 hc        1 MOL      0.060570
    153 H71         9.1890   -2.0730   -1.2480 hc        1 MOL      0.036248
    154 H72         9.0460   -3.7380   -0.5510 hc        1 MOL      0.036248
    155 H73        11.3580   -3.2510   -0.4040 hc        1 MOL      0.028460
    156 H74        10.8060   -2.9870    1.2280 hc        1 MOL      0.028460
    157 H75        10.6510   -0.7560    1.1060 hx        1 MOL      0.086686
    158 H76        10.7710   -0.6660   -0.6620 hx        1 MOL      0.086686
    159 H77        12.8510   -0.0430    0.3900 hn        1 MOL      0.229450
    160 H78        13.0370   -1.7060    0.8120 hn        1 MOL      0.229450
    161 H79        12.9870   -1.0950   -0.7450 hn        1 MOL      0.229450
    162 N14         5.0270   -2.7150    1.7640 n         1 MOL     -0.642982
    163 C49         3.9120   -2.3200    2.6860 c3        1 MOL      0.563100
    164 C50         2.4950   -2.2730    1.9590 c         1 MOL      0.284582
    165 O22         1.9330   -1.1990    2.0180 o         1 MOL     -0.556659
    166 C51         3.9840   -3.2950    3.8280 c3        1 MOL     -0.180192
    167 C52         5.1990   -3.1550    4.6800 c3        1 MOL     -0.182669
    168 C53         5.0240   -4.1460    5.8400 c         1 MOL      0.675421
    169 O23         4.8420   -3.7200    7.0110 o         1 MOL     -0.636110
    170 O24         5.0970   -5.3860    5.5920 o         1 MOL     -0.636110
    171 H80         5.2880   -3.6930    1.7770 hn        1 MOL      0.339078
    172 H81         4.0770   -1.3150    3.0810 h1        1 MOL      0.030663
    173 H82         4.0490   -4.2970    3.3890 hc        1 MOL      0.058662
    174 H83         3.1140   -3.0150    4.4130 hc        1 MOL      0.058662
    175 H84         5.2420   -2.1770    5.1610 hc        1 MOL      0.015307
    176 H85         6.1300   -3.2380    4.1270 hc        1 MOL      0.015307
    177 N15         1.9320   -3.3170    1.2560 n         1 MOL     -0.308398
    178 C54         2.3510   -4.6360    0.9430 c3        1 MOL      0.000623
    179 H86         2.4870   -4.7270   -0.1350 h1        1 MOL      0.020332
    180 H87         3.2930   -4.8470    1.4480 h1        1 MOL      0.020332
    181 H88         1.5930   -5.3460    1.2740 h1        1 MOL      0.020332
    182 H89         1.2000   -2.9760    0.6600 hn        1 MOL      0.303924
    183 Ca1         0.2530    0.8250    1.3580 Ca        1 MOL      1.756276
    184 O25        -1.2740    0.2110    3.5090 oh        1 MOL     -0.841024
    185 H90        -1.6950    0.9550    3.9320 ho        1 MOL      0.392973
    186 H91        -1.9110   -0.5010    3.6140 ho        1 MOL      0.392973
    187 O26         3.0930    1.1420    1.0820 oh        1 MOL     -0.841024
    188 H92         3.8850    0.7550    0.7130 ho        1 MOL      0.392973
    189 H93         3.2780    2.0840    1.1090 ho        1 MOL      0.392973
    190 O27         1.5420    1.4320    3.8580 oh        1 MOL     -0.841024
    191 H94         1.4890    0.8780    4.6340 ho        1 MOL      0.392973
    192 H95         0.8770    2.1030    3.9970 ho        1 MOL      0.392973
@<TRIPOS>BOND
     1    1    2 1   
     2    1    4 1   
     3    1    5 1   
     4    1    6 1   
     5    2    3 2   
     6    2    7 1   
     7    7    8 1   
     8    7   15 1   
     9    8    9 1   
    10    8   11 1   
    11    8   16 1   
    12    9   10 2   
    13    9   19 1   
    14   11   12 1   
    15   11   17 1   
    16   11   18 1   
    17   12   13 1   
    18   12   14 1   
    19   19   20 1   
    20   19   28 1   
    21   20   21 1   
    22   20   23 1   
    23   20   29 1   
    24   21   22 2   
    25   21   41 1   
    26   23   24 1   
    27   23   30 1   
    28   23   31 1   
    29   24   25 1   
    30   24   32 1   
    31   24   33 1   
    32   25   26 1   
    33   25   34 1   
    34   25   35 1   
    35   26   27 1   
    36   26   36 1   
    37   26   37 1   
    38   27   38 1   
    39   27   39 1   
    40   27   40 1   
    41   41   42 1   
    42   41   49 1   
    43   42   43 1   
    44   42   45 1   
    45   42   50 1   
    46   43   44 2   
    47   43   53 1   
    48   45   46 1   
    49   45   51 1   
    50   45   52 1   
    51   46   47 1   
    52   46   48 1   
    53   53   54 1   
    54   53   57 1   
    55   54   55 1   
    56   54   58 1   
    57   54   59 1   
    58   55   56 2   
    59   55   60 1   
    60   60   61 1   
    61   60   68 1   
    62   61   62 1   
    63   61   64 1   
    64   61   69 1   
    65   62   63 2   
    66   62   72 1   
    67   64   65 1   
    68   64   70 1   
    69   64   71 1   
    70   65   66 1   
    71   65   67 1   
    72   72   73 1   
    73   72   76 1   
    74   73   74 1   
    75   73   77 1   
    76   73   78 1   
    77   74   75 2   
    78   74   79 1   
    79   79   80 1   
    80   79   86 1   
    81   80   81 1   
    82   80   83 1   
    83   80   87 1   
    84   81   82 2   
    85   81   93 1   
    86   83   84 1   
    87   83   85 1   
    88   83   88 1   
    89   84   90 1   
    90   84   91 1   
    91   84   92 1   
    92   85   89 1   
    93   93   94 1   
    94   93  101 1   
    95   94   95 1   
    96   94   97 1   
    97   94  102 1   
    98   95   96 2   
    99   95  112 1   
   100   97   98 1   
   101   97   99 1   
   102   97  103 1   
   103   98  100 1   
   104   98  104 1   
   105   98  105 1   
   106   99  106 1   
   107   99  107 1   
   108   99  108 1   
   109  100  109 1   
   110  100  110 1   
   111  100  111 1   
   112  112  113 1   
   113  112  119 1   
   114  113  114 1   
   115  113  116 1   
   116  113  120 1   
   117  114  115 2   
   118  114  126 1   
   119  116  117 1   
   120  116  118 1   
   121  116  121 1   
   122  117  123 1   
   123  117  124 1   
   124  117  125 1   
   125  118  122 1   
   126  126  127 1   
   127  126  133 1   
   128  127  128 1   
   129  127  130 1   
   130  127  134 1   
   131  128  129 2   
   132  128  140 1   
   133  130  131 1   
   134  130  132 1   
   135  130  135 1   
   136  131  137 1   
   137  131  138 1   
   138  131  139 1   
   139  132  136 1   
   140  140  141 1   
   141  140  149 1   
   142  141  142 1   
   143  141  144 1   
   144  141  150 1   
   145  142  143 2   
   146  142  162 1   
   147  144  145 1   
   148  144  151 1   
   149  144  152 1   
   150  145  146 1   
   151  145  153 1   
   152  145  154 1   
   153  146  147 1   
   154  146  155 1   
   155  146  156 1   
   156  147  148 1   
   157  147  157 1   
   158  147  158 1   
   159  148  159 1   
   160  148  160 1   
   161  148  161 1   
   162  162  163 1   
   163  162  171 1   
   164  163  164 1   
   165  163  166 1   
   166  163  172 1   
   167  164  165 2   
   168  164  177 1   
   169  166  167 1   
   170  166  173 1   
   171  166  174 1   
   172  167  168 1   
   173  167  175 1   
   174  167  176 1   
   175  168  169 1   
   176  168  170 1   
   177  177  178 1   
   178  177  182 1   
   179  178  179 1   
   180  178  180 1   
   181  178  181 1   
   182  184  185 1   
   183  184  186 1   
   184  187  188 1   
   185  187  189 1   
   186  190  191 1   
   187  190  192 1   
@<TRIPOS>SUBSTRUCTURE
     1 MOL         1 TEMP              0 ****  ****    0 ROOT
