@<TRIPOS>MOLECULE
MOL
  181   177     1     0     0
SMALL
resp


@<TRIPOS>ATOM
      1 C1          0.1510    6.6310   -1.9080 c3        1 MOL     -0.333021
      2 C2          1.5950    6.7840   -1.3750 c         1 MOL      0.641862
      3 O1          1.7860    7.4160   -0.3060 o         1 MOL     -0.577864
      4 H1         -0.0200    5.5940   -2.1980 hc        1 MOL      0.086593
      5 H2         -0.5570    6.9110   -1.1280 hc        1 MOL      0.086593
      6 H3          0.0120    7.2770   -2.7740 hc        1 MOL      0.086593
      7 N1          2.6250    6.2020   -2.0800 n         1 MOL     -0.566709
      8 C3          4.0410    5.9500   -1.6160 c3        1 MOL      0.197114
      9 C4          4.0930    4.8340   -0.5390 c         1 MOL      0.643559
     10 O2          3.6100    3.6700   -0.7600 o         1 MOL     -0.619911
     11 C5          4.9370    5.4710   -2.7990 c3        1 MOL     -0.374725
     12 C6          6.4320    5.5080   -2.4000 c         1 MOL      0.774282
     13 O3          7.2620    4.8180   -3.0220 o         1 MOL     -0.735027
     14 O4          6.8450    6.1760   -1.4540 o         1 MOL     -0.735027
     15 H4          2.3650    5.7910   -2.9640 hn        1 MOL      0.288044
     16 H5          4.3740    6.9340   -1.2750 h1        1 MOL      0.041569
     17 H6          4.7970    6.1550   -3.6300 hc        1 MOL      0.076536
     18 H7          4.7140    4.4600   -3.1360 hc        1 MOL      0.076536
     19 N2          4.6020    5.0750    0.6340 n         1 MOL     -0.549502
     20 C7          4.8940    4.2340    1.7860 c3        1 MOL      0.534234
     21 C8          3.6470    3.4780    2.3450 c         1 MOL      0.230380
     22 O5          2.5000    3.9820    2.2880 o         1 MOL     -0.490619
     23 C9          5.6130    5.0920    2.8540 c3        1 MOL     -0.334489
     24 H8          4.9810    6.0120    0.6540 hn        1 MOL      0.251562
     25 H9          5.6490    3.4990    1.5260 h1        1 MOL     -0.005358
     26 H10         5.9280    4.3880    3.6320 hc        1 MOL      0.085100
     27 H11         6.5120    5.5840    2.5030 hc        1 MOL      0.085100
     28 H12         4.9910    5.8870    3.2650 hc        1 MOL      0.085100
     29 N3          3.7600    2.4230    3.1940 n         1 MOL     -0.170281
     30 C10         4.8380    1.4850    3.3630 c3        1 MOL     -0.311148
     31 C11         5.2170    0.7060    2.1340 c         1 MOL      0.805884
     32 O6          4.5430    0.6980    1.1500 o         1 MOL     -0.502083
     33 C12         4.3760    0.5610    4.4740 c3        1 MOL      0.014749
     34 C13         3.1380   -0.3940    4.1670 c         1 MOL      0.550836
     35 O7          2.9900   -1.4100    4.8510 o         1 MOL     -0.631080
     36 O8          2.4040   -0.0580    3.2240 o         1 MOL     -0.631080
     37 H13         2.8750    1.9800    3.4040 hn        1 MOL      0.166032
     38 H14         5.6940    2.0820    3.6820 h1        1 MOL      0.076393
     39 H15         4.1610    1.1490    5.3730 hc        1 MOL      0.009242
     40 H16         5.2000   -0.1160    4.7340 hc        1 MOL      0.009242
     41 N4          6.3710    0.0090    2.2300 n         1 MOL     -0.735076
     42 C14         6.9220   -0.8600    1.2360 c3        1 MOL      0.259301
     43 C15         7.9500   -0.2670    0.2240 c         1 MOL      0.339955
     44 O9          8.3180    0.9480    0.2230 o         1 MOL     -0.460244
     45 H17         6.9020    0.0700    3.0850 hn        1 MOL      0.368309
     46 H18         6.1550   -1.3510    0.6410 h1        1 MOL      0.006308
     47 H19         7.5380   -1.6450    1.6790 h1        1 MOL      0.006308
     48 N5          8.4000   -1.0870   -0.7560 n         1 MOL     -0.365514
     49 C16         7.9790   -2.3520   -1.1340 c3        1 MOL      0.267659
     50 C17         6.8950   -2.3130   -2.2140 c         1 MOL      0.542109
     51 O10         7.0470   -1.6910   -3.2690 o         1 MOL     -0.532793
     52 C18         9.1140   -3.2930   -1.4060 c3        1 MOL     -0.443866
     53 C19         8.6350   -4.7420   -1.4330 c         1 MOL      0.678209
     54 N6          9.3400   -5.7070   -2.0140 n         1 MOL     -0.779382
     55 O11         7.5660   -5.0550   -0.8930 o         1 MOL     -0.554482
     56 H20         9.1490   -0.6480   -1.2730 hn        1 MOL      0.272077
     57 H21         7.4970   -2.7430   -0.2340 h1        1 MOL     -0.001999
     58 H22         9.7940   -3.2080   -0.5600 hc        1 MOL      0.117179
     59 H23         9.6870   -3.0720   -2.3040 hc        1 MOL      0.117179
     60 H24        10.2860   -5.4550   -2.2630 hn        1 MOL      0.370500
     61 H25         8.9470   -6.6240   -1.8590 hn        1 MOL      0.370500
     62 N7          5.6550   -2.7470   -1.8960 n         1 MOL     -0.416978
     63 C20         4.3790   -2.3370   -2.4990 c3        1 MOL      0.109950
     64 C21         3.3890   -3.4880   -2.5350 c         1 MOL      0.348409
     65 O12         3.0960   -4.0370   -3.6300 o         1 MOL     -0.549015
     66 H26         5.6140   -3.3010   -1.0560 hn        1 MOL      0.212480
     67 H27         4.6250   -1.9770   -3.4970 h1        1 MOL      0.065759
     68 H28         3.8870   -1.4630   -2.0680 h1        1 MOL      0.065759
     69 N8          2.6330   -3.6910   -1.4990 n         1 MOL     -0.128925
     70 C22         1.3550   -4.4500   -1.4310 c3        1 MOL      0.030291
     71 C23         0.1500   -3.5400   -1.0560 c         1 MOL      0.436434
     72 O13         0.3830   -2.4700   -0.4560 o         1 MOL     -0.549179
     73 C24         1.3850   -5.7280   -0.5900 c3        1 MOL      0.244610
     74 C25         2.5110   -6.7010   -0.9650 c3        1 MOL     -0.413580
     75 O14         1.6160   -5.4640    0.8120 oh        1 MOL     -0.615223
     76 H29         2.7120   -3.0590   -0.7230 hn        1 MOL      0.187637
     77 H30         1.1060   -4.7540   -2.4440 h1        1 MOL      0.046486
     78 H31         0.4050   -6.2090   -0.5760 h1        1 MOL      0.026813
     79 H32         1.6370   -6.3300    1.2220 ho        1 MOL      0.417949
     80 H33         3.4350   -6.3440   -0.5220 hc        1 MOL      0.108546
     81 H34         2.3510   -7.6620   -0.4810 hc        1 MOL      0.108546
     82 H35         2.6290   -6.8540   -2.0350 hc        1 MOL      0.108546
     83 N9         -1.0740   -4.0450   -1.2560 n         1 MOL     -0.164156
     84 C26        -2.3790   -3.2550   -0.9810 c3        1 MOL     -0.445405
     85 C27        -2.8120   -3.5310    0.4820 c         1 MOL      0.609646
     86 O15        -2.6650   -4.6420    0.9610 o         1 MOL     -0.562095
     87 C28        -3.4580   -3.6120   -2.0470 c3        1 MOL      0.287456
     88 C29        -4.7960   -2.9540   -1.9400 c3        1 MOL      0.075011
     89 C30        -2.9850   -3.4880   -3.4540 c3        1 MOL     -0.171112
     90 C31        -5.9300   -3.4520   -2.8170 c3        1 MOL     -0.270310
     91 H36        -1.1240   -4.9050   -1.7740 hn        1 MOL      0.219185
     92 H37        -2.2860   -2.1840   -1.1880 h1        1 MOL      0.253352
     93 H38        -3.6250   -4.6860   -1.9260 hc        1 MOL     -0.032743
     94 H39        -4.8190   -1.8640   -1.9800 hc        1 MOL     -0.008020
     95 H40        -5.1320   -3.1590   -0.9270 hc        1 MOL     -0.008020
     96 H41        -2.0040   -3.9300   -3.6210 hc        1 MOL      0.025209
     97 H42        -3.6430   -4.0010   -4.1450 hc        1 MOL      0.025209
     98 H43        -2.9400   -2.4270   -3.6890 hc        1 MOL      0.025209
     99 H44        -6.0200   -4.5190   -2.6320 hc        1 MOL      0.058655
    100 H45        -6.8400   -2.8590   -2.6830 hc        1 MOL      0.058655
    101 H46        -5.7060   -3.3380   -3.8770 hc        1 MOL      0.058655
    102 N10        -3.2600   -2.5090    1.2010 n         1 MOL     -0.312579
    103 C32        -3.9780   -2.5480    2.5590 c3        1 MOL      0.170491
    104 C33        -5.3540   -1.8530    2.5320 c         1 MOL      0.452639
    105 O16        -6.0610   -1.8580    3.5570 o         1 MOL     -0.539638
    106 C34        -3.0890   -2.0200    3.7220 c3        1 MOL     -0.164009
    107 C35        -1.5650   -2.1350    3.6050 c         1 MOL      0.768367
    108 O17        -1.0110   -3.2170    3.8570 o         1 MOL     -0.715216
    109 O18        -0.9290   -1.0580    3.3180 o         1 MOL     -0.715216
    110 H47        -3.1880   -1.6300    0.7120 hn        1 MOL      0.101307
    111 H48        -4.2630   -3.5680    2.8070 h1        1 MOL      0.048674
    112 H49        -3.3540   -2.6280    4.5940 hc        1 MOL      0.029462
    113 H50        -3.4330   -1.0000    3.8290 hc        1 MOL      0.029462
    114 N11        -5.6820   -1.0920    1.4390 n         1 MOL     -0.558157
    115 C36        -6.8780   -0.3230    1.3480 c3        1 MOL      0.668542
    116 C37        -6.5700    0.9840    0.7140 c         1 MOL      0.193169
    117 O19        -7.2520    1.3980   -0.2170 o         1 MOL     -0.397730
    118 C38        -8.0300   -1.1330    0.6250 c3        1 MOL     -0.341329
    119 C39        -9.4420   -0.5520    0.4260 ca        1 MOL      0.213898
    120 C40       -10.3050   -1.2040   -0.4490 ca        1 MOL     -0.200702
    121 C41        -9.8840    0.5550    1.0780 ca        1 MOL     -0.200702
    122 C42       -11.5910   -0.6760   -0.5890 ca        1 MOL     -0.092740
    123 C43       -11.1300    1.1230    0.8400 ca        1 MOL     -0.092740
    124 C44       -12.0200    0.4850   -0.0370 ca        1 MOL     -0.135200
    125 H51        -5.0080   -0.9120    0.7120 hn        1 MOL      0.237647
    126 H52        -7.2450   -0.0320    2.3260 h1        1 MOL     -0.077207
    127 H53        -8.1760   -2.0010    1.2690 hc        1 MOL      0.086326
    128 H54        -7.6100   -1.4500   -0.3350 hc        1 MOL      0.086326
    129 H55       -10.0470   -2.1730   -0.8430 ha        1 MOL      0.114909
    130 H56        -9.2390    1.0680    1.7760 ha        1 MOL      0.114909
    131 H57       -12.3100   -1.1900   -1.2170 ha        1 MOL      0.087525
    132 H58       -11.5420    1.8610    1.5110 ha        1 MOL      0.087525
    133 H59       -13.0420    0.8190   -0.2070 ha        1 MOL      0.099349
    134 N12        -5.5030    1.7990    1.1080 n         1 MOL     -0.058332
    135 C45        -5.3420    3.2050    0.7090 c3        1 MOL     -0.176578
    136 C46        -5.2210    3.2460   -0.8210 c         1 MOL      0.353827
    137 O20        -5.6330    4.1630   -1.5350 o         1 MOL     -0.519327
    138 C47        -4.0360    3.6390    1.4110 c3        1 MOL      0.112695
    139 C48        -4.0630    2.8570    2.6940 c3        1 MOL     -0.091907
    140 C49        -4.7210    1.5460    2.2830 c3        1 MOL      0.104718
    141 H60        -6.2870    3.5990    1.1030 h1        1 MOL      0.095367
    142 H61        -3.1850    3.3330    0.7900 hc        1 MOL      0.026182
    143 H62        -3.9110    4.7020    1.6110 hc        1 MOL      0.026182
    144 H63        -3.0520    2.8150    3.0960 hc        1 MOL      0.015702
    145 H64        -4.7140    3.3040    3.4340 hc        1 MOL      0.015702
    146 H65        -3.8990    0.8930    2.0060 h1        1 MOL      0.010610
    147 H66        -5.2700    1.0340    3.0830 h1        1 MOL      0.010610
    148 N13        -4.5890    2.2060   -1.4070 n         1 MOL     -0.212252
    149 C50        -4.2670    2.0850   -2.8420 c3        1 MOL     -0.262662
    150 C51        -5.5700    1.8480   -3.7050 c         1 MOL      0.507306
    151 O21        -5.4240    1.9600   -4.9290 o         1 MOL     -0.576771
    152 C52        -3.2760    0.9480   -3.1690 c3        1 MOL      0.096660
    153 C53        -2.1070    0.7820   -2.1640 c3        1 MOL     -0.273268
    154 C54        -2.4930    0.2360   -0.7870 c         1 MOL      0.700404
    155 O22        -1.5520    0.0810    0.0350 o         1 MOL     -0.736114
    156 O23        -3.6480   -0.1560   -0.5450 o         1 MOL     -0.736114
    157 H67        -4.4060    1.3940   -0.8380 hn        1 MOL      0.395356
    158 H68        -3.8270    3.0140   -3.2120 h1        1 MOL      0.149857
    159 H69        -2.8370    1.1180   -4.1480 hc        1 MOL      0.016604
    160 H70        -3.8420    0.0270   -3.1580 hc        1 MOL      0.016604
    161 H71        -1.5010    1.6840   -2.0940 hc        1 MOL      0.082574
    162 H72        -1.4670    0.0670   -2.6920 hc        1 MOL      0.082574
    163 N14        -6.7430    1.5440   -3.0880 n         1 MOL     -0.085272
    164 C55        -8.0840    1.6190   -3.6780 c3        1 MOL     -0.194057
    165 H73        -8.4090    0.6200   -3.9690 h1        1 MOL      0.080738
    166 H74        -8.7810    2.0280   -2.9460 h1        1 MOL      0.080738
    167 H75        -8.0600    2.2630   -4.5570 h1        1 MOL      0.080738
    168 H76        -6.6410    1.2580   -2.1310 hn        1 MOL      0.096015
    169 Ca1         0.6690   -0.4420    1.3630 Ca        1 MOL      1.742457
    170 O24         3.0690   -1.5750    0.5750 oh        1 MOL     -0.853301
    171 H77         3.6490   -2.1110    1.1210 ho        1 MOL      0.416391
    172 H78         3.5320   -0.7560    0.4610 ho        1 MOL      0.416391
    173 O25         0.2900    1.8850    2.1650 oh        1 MOL     -0.853301
    174 H79         0.8630    2.6510    2.1670 ho        1 MOL      0.416391
    175 H80        -0.2310    1.9640    2.9690 ho        1 MOL      0.416391
    176 O26         1.1350   -3.1460    2.2200 oh        1 MOL     -0.853301
    177 H81         0.6040   -3.5100    2.9230 ho        1 MOL      0.416391
    178 H82         1.4220   -3.9030    1.7150 ho        1 MOL      0.416391
    179 O27         2.1230    1.4490    0.1620 oh        1 MOL     -0.853301
    180 H83         1.8660    2.1620   -0.4170 ho        1 MOL      0.416391
    181 H84         3.0040    1.6810    0.4500 ho        1 MOL      0.416391
@<TRIPOS>BOND
     1    1    2 1   
     2    1    4 1   
     3    1    5 1   
     4    1    6 1   
     5    2    3 2   
     6    2    7 1   
     7    7    8 1   
     8    7   15 1   
     9    8    9 1   
    10    8   11 1   
    11    8   16 1   
    12    9   10 2   
    13    9   19 1   
    14   11   12 1   
    15   11   17 1   
    16   11   18 1   
    17   12   13 1   
    18   12   14 1   
    19   19   20 1   
    20   19   24 1   
    21   20   21 1   
    22   20   23 1   
    23   20   25 1   
    24   21   22 2   
    25   21   29 1   
    26   23   26 1   
    27   23   27 1   
    28   23   28 1   
    29   29   30 1   
    30   29   37 1   
    31   30   31 1   
    32   30   33 1   
    33   30   38 1   
    34   31   32 2   
    35   31   41 1   
    36   33   34 1   
    37   33   39 1   
    38   33   40 1   
    39   34   35 1   
    40   34   36 1   
    41   41   42 1   
    42   41   45 1   
    43   42   43 1   
    44   42   46 1   
    45   42   47 1   
    46   43   44 2   
    47   43   48 1   
    48   48   49 1   
    49   48   56 1   
    50   49   50 1   
    51   49   52 1   
    52   49   57 1   
    53   50   51 2   
    54   50   62 1   
    55   52   53 1   
    56   52   58 1   
    57   52   59 1   
    58   53   54 1   
    59   53   55 2   
    60   54   60 1   
    61   54   61 1   
    62   62   63 1   
    63   62   66 1   
    64   63   64 1   
    65   63   67 1   
    66   63   68 1   
    67   64   65 2   
    68   64   69 1   
    69   69   70 1   
    70   69   76 1   
    71   70   71 1   
    72   70   73 1   
    73   70   77 1   
    74   71   72 2   
    75   71   83 1   
    76   73   74 1   
    77   73   75 1   
    78   73   78 1   
    79   74   80 1   
    80   74   81 1   
    81   74   82 1   
    82   75   79 1   
    83   83   84 1   
    84   83   91 1   
    85   84   85 1   
    86   84   87 1   
    87   84   92 1   
    88   85   86 2   
    89   85  102 1   
    90   87   88 1   
    91   87   89 1   
    92   87   93 1   
    93   88   90 1   
    94   88   94 1   
    95   88   95 1   
    96   89   96 1   
    97   89   97 1   
    98   89   98 1   
    99   90   99 1   
   100   90  100 1   
   101   90  101 1   
   102  102  103 1   
   103  102  110 1   
   104  103  104 1   
   105  103  106 1   
   106  103  111 1   
   107  104  105 2   
   108  104  114 1   
   109  106  107 1   
   110  106  112 1   
   111  106  113 1   
   112  107  108 1   
   113  107  109 1   
   114  114  115 1   
   115  114  125 1   
   116  115  116 1   
   117  115  118 1   
   118  115  126 1   
   119  116  117 2   
   120  116  134 1   
   121  118  119 1   
   122  118  127 1   
   123  118  128 1   
   124  119  120 ar  
   125  119  121 ar  
   126  120  122 ar  
   127  120  129 1   
   128  121  123 ar  
   129  121  130 1   
   130  122  124 ar  
   131  122  131 1   
   132  123  124 ar  
   133  123  132 1   
   134  124  133 1   
   135  134  135 1   
   136  134  140 1   
   137  135  136 1   
   138  135  138 1   
   139  135  141 1   
   140  136  137 2   
   141  136  148 1   
   142  138  139 1   
   143  138  142 1   
   144  138  143 1   
   145  139  140 1   
   146  139  144 1   
   147  139  145 1   
   148  140  146 1   
   149  140  147 1   
   150  148  149 1   
   151  148  157 1   
   152  149  150 1   
   153  149  152 1   
   154  149  158 1   
   155  150  151 2   
   156  150  163 1   
   157  152  153 1   
   158  152  159 1   
   159  152  160 1   
   160  153  154 1   
   161  153  161 1   
   162  153  162 1   
   163  154  155 1   
   164  154  156 1   
   165  163  164 1   
   166  163  168 1   
   167  164  165 1   
   168  164  166 1   
   169  164  167 1   
   170  170  171 1   
   171  170  172 1   
   172  173  174 1   
   173  173  175 1   
   174  176  177 1   
   175  176  178 1   
   176  179  180 1   
   177  179  181 1   
@<TRIPOS>SUBSTRUCTURE
     1 MOL         1 TEMP              0 ****  ****    0 ROOT
