@<TRIPOS>MOLECULE
MOL
  178   175     1     0     0
SMALL
resp


@<TRIPOS>ATOM
      1 C1          1.8720   -1.5400    5.7360 c3        1 MOL     -0.320539
      2 C2          2.7780   -1.1860    4.5760 c         1 MOL      0.615020
      3 O1          2.5300   -0.3390    3.6870 o         1 MOL     -0.566133
      4 H1          1.2000   -2.3460    5.4390 hc        1 MOL      0.080739
      5 H2          2.4750   -1.8650    6.5840 hc        1 MOL      0.080739
      6 H3          1.2860   -0.6660    6.0200 hc        1 MOL      0.080739
      7 N1          3.9480   -1.7670    4.5160 n         1 MOL     -0.428860
      8 C3          5.1080   -1.3780    3.6440 c3        1 MOL      0.196192
      9 C4          5.3770   -2.2260    2.3340 c         1 MOL      0.397703
     10 O2          6.2840   -1.9450    1.5350 o         1 MOL     -0.405296
     11 C5          6.3400   -1.2250    4.5170 c3        1 MOL     -0.262908
     12 C6          7.5970   -0.5680    3.8750 c         1 MOL      0.740147
     13 O3          8.5930   -1.2280    3.6680 o         1 MOL     -0.695150
     14 O4          7.5960    0.6200    3.5570 o         1 MOL     -0.695150
     15 H4          4.1340   -2.4840    5.2050 hn        1 MOL      0.237596
     16 H5          4.9280   -0.3640    3.2980 h1        1 MOL      0.066860
     17 H6          6.6120   -2.2430    4.8120 hc        1 MOL      0.012044
     18 H7          6.1630   -0.6320    5.4100 hc        1 MOL      0.012044
     19 N2          4.5750   -3.2380    2.0150 n         1 MOL     -0.346348
     20 C7          4.5580   -4.0850    0.8130 c3        1 MOL      0.180861
     21 C8          4.4990   -3.2950   -0.5210 c         1 MOL      0.437358
     22 O5          3.4980   -3.3570   -1.1890 o         1 MOL     -0.558193
     23 C9          5.6940   -5.1720    0.9550 c3        1 MOL     -0.449714
     24 H8          3.8640   -3.4190    2.7190 hn        1 MOL      0.210454
     25 H9          3.5920   -4.5800    0.7850 h1        1 MOL      0.104321
     26 H10         6.6370   -4.6690    1.1680 hc        1 MOL      0.116030
     27 H11         5.3140   -5.8320    1.7310 hc        1 MOL      0.116030
     28 H12         5.9180   -5.7940    0.0900 hc        1 MOL      0.116030
     29 N3          5.5840   -2.6920   -0.9870 n         1 MOL     -0.400613
     30 C10         5.6310   -1.7910   -2.1790 c3        1 MOL      0.201723
     31 C11         5.9130   -0.3130   -1.8550 c         1 MOL      0.545080
     32 O6          6.1550    0.4360   -2.8250 o         1 MOL     -0.582040
     33 C12         6.5630   -2.4080   -3.2740 c3        1 MOL     -0.524629
     34 C13         7.9450   -2.6390   -2.7530 c         1 MOL      0.884211
     35 O7          8.3060   -2.1870   -1.6900 o         1 MOL     -0.755209
     36 O8          8.6960   -3.4270   -3.3750 o         1 MOL     -0.755209
     37 H13         6.4810   -2.8130   -0.5370 hn        1 MOL      0.351512
     38 H14         4.6340   -1.8400   -2.6100 h1        1 MOL      0.014953
     39 H15         6.6310   -1.7590   -4.1550 hc        1 MOL      0.080735
     40 H16         6.1040   -3.2120   -3.8540 hc        1 MOL      0.080735
     41 N4          6.0780    0.1430   -0.5720 n         1 MOL     -0.157556
     42 C14         6.3850    1.5510   -0.3780 c3        1 MOL     -0.037777
     43 C15         5.4390    2.6410   -0.7750 c         1 MOL      0.603114
     44 O9          5.8700    3.7710   -0.9360 o         1 MOL     -0.571091
     45 H17         5.8340   -0.4270    0.2270 hn        1 MOL      0.118721
     46 H18         7.2140    1.7840   -1.0480 h1        1 MOL      0.064319
     47 H19         6.7790    1.8020    0.6090 h1        1 MOL      0.064319
     48 N5          4.1830    2.2100   -0.9480 n         1 MOL     -0.427226
     49 C16         3.2140    2.9550   -1.7450 c3        1 MOL     -0.102307
     50 C17         2.6680    4.2790   -1.1880 c         1 MOL      0.635734
     51 O10         2.3100    4.3400   -0.0210 o         1 MOL     -0.506019
     52 C18         1.9530    2.1130   -2.1270 c3        1 MOL     -0.176403
     53 C19         2.3580    0.8500   -2.8450 c         1 MOL      0.734110
     54 N6          2.9530    0.8870   -4.0430 n         1 MOL     -0.913832
     55 O11         2.0460   -0.2340   -2.3750 o         1 MOL     -0.661751
     56 H20         4.0560    1.2230   -0.7830 hn        1 MOL      0.275946
     57 H21         3.7590    3.3100   -2.6100 h1        1 MOL      0.023976
     58 H22         1.3390    2.7280   -2.7920 hc        1 MOL      0.098419
     59 H23         1.2650    1.9060   -1.3080 hc        1 MOL      0.098419
     60 H24         3.3420    1.7620   -4.3600 hn        1 MOL      0.409158
     61 H25         3.0810    0.0540   -4.5920 hn        1 MOL      0.409158
     62 N7          2.7400    5.2850   -2.0630 n         1 MOL     -0.329523
     63 C20         2.3000    6.6500   -1.6680 c3        1 MOL     -0.357295
     64 C21         0.8190    6.8600   -1.5860 c         1 MOL      0.675237
     65 O12         0.0830    6.1710   -2.3250 o         1 MOL     -0.546556
     66 H26         3.0230    5.0720   -3.0100 hn        1 MOL      0.284239
     67 H27         2.6660    7.3180   -2.4570 h1        1 MOL      0.150164
     68 H28         2.7400    6.9340   -0.7090 h1        1 MOL      0.150164
     69 N8          0.3460    7.5820   -0.5910 n         1 MOL     -0.605652
     70 C22        -1.1590    7.8130   -0.6110 c3        1 MOL     -0.132310
     71 C23        -2.1060    6.7170   -0.0850 c         1 MOL      0.410260
     72 O13        -3.2990    6.9350    0.2030 o         1 MOL     -0.544569
     73 C24        -1.4560    9.1000    0.1340 c3        1 MOL      0.527516
     74 C25        -1.4900    8.9780    1.6510 c3        1 MOL     -0.297875
     75 O14        -0.4640   10.1260   -0.1540 oh        1 MOL     -0.682400
     76 H29         0.9340    7.8900    0.1670 hn        1 MOL      0.352429
     77 H30        -1.3690    7.9450   -1.6700 h1        1 MOL      0.142365
     78 H31        -2.4130    9.4370   -0.2650 h1        1 MOL      0.008868
     79 H32         0.4210    9.8320    0.0630 ho        1 MOL      0.375722
     80 H33        -2.5090    8.6620    1.8770 hc        1 MOL      0.067560
     81 H34        -0.7650    8.2740    2.0550 hc        1 MOL      0.067560
     82 H35        -1.4360    9.9320    2.1780 hc        1 MOL      0.067560
     83 N9         -1.5750    5.4700    0.1350 n         1 MOL     -0.083785
     84 C26        -2.2360    4.2620    0.8130 c3        1 MOL     -0.108324
     85 C27        -1.9740    3.0230   -0.0850 c         1 MOL      0.370755
     86 O15        -1.1600    2.9620   -0.9920 o         1 MOL     -0.429887
     87 C28        -1.6190    4.0830    2.2320 c3        1 MOL      0.189965
     88 C29        -0.1650    3.9290    2.3510 c3        1 MOL     -0.145360
     89 C30        -1.9610    5.3620    3.0650 c3        1 MOL     -0.341725
     90 C31         0.3550    3.5440    3.7460 c3        1 MOL     -0.404003
     91 H36        -0.6220    5.3410   -0.1790 hn        1 MOL      0.114722
     92 H37        -3.3150    4.3610    0.8970 h1        1 MOL      0.097972
     93 H38        -1.9930    3.1860    2.7210 hc        1 MOL     -0.014476
     94 H39         0.3330    4.8090    1.9400 hc        1 MOL      0.131153
     95 H40         0.1290    3.1120    1.7010 hc        1 MOL      0.131153
     96 H41        -2.9340    5.7830    2.8110 hc        1 MOL      0.078534
     97 H42        -2.0570    5.0700    4.1100 hc        1 MOL      0.078534
     98 H43        -1.2080    6.1130    2.8440 hc        1 MOL      0.078534
     99 H44         0.2610    4.3210    4.5080 hc        1 MOL      0.116732
    100 H45        -0.2250    2.6990    4.1220 hc        1 MOL      0.116732
    101 H46         1.3760    3.1870    3.6470 hc        1 MOL      0.116732
    102 N10        -2.7100    2.0140    0.2610 n         1 MOL     -0.327034
    103 C32        -2.6010    0.6460   -0.3390 c3        1 MOL     -0.041445
    104 C33        -3.8600   -0.2070   -0.4800 c         1 MOL      0.676957
    105 O16        -3.7970   -1.3870   -0.7810 o         1 MOL     -0.540943
    106 C34        -1.3880   -0.0930    0.3650 c3        1 MOL     -0.410220
    107 C35        -0.4950   -1.0680   -0.4210 c         1 MOL      0.722140
    108 O17         0.6250   -1.4100   -0.0380 o         1 MOL     -0.712243
    109 O18        -0.9420   -1.4670   -1.5500 o         1 MOL     -0.712243
    110 H47        -3.4020    2.0610    1.0030 hn        1 MOL      0.240222
    111 H48        -2.2910    0.7940   -1.3790 h1        1 MOL      0.092576
    112 H49        -1.7400   -0.6650    1.2280 hc        1 MOL      0.158580
    113 H50        -0.6490    0.5690    0.8050 hc        1 MOL      0.158580
    114 N11        -5.0630    0.3470   -0.3410 n         1 MOL     -0.499121
    115 C36        -6.2990   -0.2840   -0.6540 c3        1 MOL      0.380146
    116 C37        -6.6430   -1.5540    0.2050 c         1 MOL      0.223411
    117 O19        -6.7610   -1.4330    1.3940 o         1 MOL     -0.448063
    118 C38        -7.3930    0.7910   -0.4720 c3        1 MOL     -0.275183
    119 C39        -8.7590    0.3440   -0.8830 ca        1 MOL      0.138826
    120 C40        -9.2830    0.5550   -2.2240 ca        1 MOL     -0.195713
    121 C41        -9.6180   -0.3210    0.0420 ca        1 MOL     -0.195713
    122 C42       -10.5710    0.2760   -2.6000 ca        1 MOL     -0.097347
    123 C43       -10.8320   -0.8130   -0.4130 ca        1 MOL     -0.097347
    124 C44       -11.3290   -0.5500   -1.7500 ca        1 MOL     -0.146812
    125 H51        -5.1550    1.3430   -0.1820 hn        1 MOL      0.231628
    126 H52        -6.2850   -0.5150   -1.7230 h1        1 MOL     -0.047682
    127 H53        -7.1240    1.6820   -1.0430 hc        1 MOL      0.090495
    128 H54        -7.4560    1.1730    0.5510 hc        1 MOL      0.090495
    129 H55        -8.5060    0.9130   -2.8890 ha        1 MOL      0.124709
    130 H56        -9.3750   -0.5600    1.0640 ha        1 MOL      0.124709
    131 H57       -10.9270    0.6140   -3.5560 ha        1 MOL      0.104930
    132 H58       -11.4050   -1.5410    0.1490 ha        1 MOL      0.104930
    133 H59       -12.2870   -0.9270   -2.0750 ha        1 MOL      0.102717
    134 N12        -6.7580   -2.7490   -0.4330 n         1 MOL     -0.080247
    135 C45        -6.6990   -4.0870    0.2340 c3        1 MOL      0.370005
    136 C46        -5.6320   -4.3000    1.3390 c         1 MOL      0.103787
    137 O20        -5.9080   -4.9520    2.3250 o         1 MOL     -0.509365
    138 C47        -6.6150   -5.1990   -0.8410 c3        1 MOL      0.048003
    139 C48        -7.4490   -4.5180   -1.9080 c3        1 MOL     -0.222020
    140 C49        -7.0690   -3.0280   -1.8180 c3        1 MOL     -0.023022
    141 H60        -7.6510   -4.2190    0.7490 h1        1 MOL     -0.026521
    142 H61        -5.5630   -5.3270   -1.0840 hc        1 MOL      0.004641
    143 H62        -7.0350   -6.0620   -0.3450 hc        1 MOL      0.004641
    144 H63        -7.1730   -4.8980   -2.9010 hc        1 MOL      0.068995
    145 H64        -8.4880   -4.6380   -1.6230 hc        1 MOL      0.068995
    146 H65        -6.1150   -2.8720   -2.3360 h1        1 MOL      0.046850
    147 H66        -7.8320   -2.3410   -2.1620 h1        1 MOL      0.046850
    148 N13        -4.4350   -3.7150    1.2440 n         1 MOL      0.132530
    149 C50        -3.2910   -3.8340    2.1560 c3        1 MOL     -0.141776
    150 C51        -3.3900   -2.9260    3.3890 c         1 MOL      0.349370
    151 O21        -2.6230   -3.0260    4.3880 o         1 MOL     -0.516978
    152 C52        -2.0280   -3.6200    1.3220 c3        1 MOL      0.077252
    153 C53        -1.6710   -4.8810    0.5620 c3        1 MOL     -0.571466
    154 C54        -0.5250   -4.5850   -0.4130 c         1 MOL      1.034696
    155 O22         0.6030   -4.2650   -0.0030 o         1 MOL     -0.824903
    156 O23        -0.6940   -4.6700   -1.6270 o         1 MOL     -0.824903
    157 H67        -4.3400   -3.0600    0.4790 hn        1 MOL      0.061320
    158 H68        -3.2190   -4.8600    2.4980 h1        1 MOL      0.136215
    159 H69        -1.2020   -3.2330    1.9130 hc        1 MOL      0.071482
    160 H70        -2.2170   -2.7850    0.6450 hc        1 MOL      0.071482
    161 H71        -2.5930   -5.2720    0.1290 hc        1 MOL      0.098863
    162 H72        -1.3150   -5.6790    1.2280 hc        1 MOL      0.098863
    163 N14        -4.3340   -1.9780    3.3560 n         1 MOL     -0.099597
    164 C55        -4.4260   -0.8320    4.2100 c3        1 MOL     -0.239302
    165 H73        -4.5360   -1.1570    5.2450 h1        1 MOL      0.095465
    166 H74        -3.5210   -0.2320    4.1130 h1        1 MOL      0.095465
    167 H75        -5.2910   -0.2330    3.9240 h1        1 MOL      0.095465
    168 H76        -4.8520   -1.8350    2.4980 hn        1 MOL      0.119374
    169 Ca1         1.0960   -2.8050   -2.2240 Ca        1 MOL      1.739053
    170 O24         2.9170   -3.4640   -3.9660 oh        1 MOL     -0.818754
    171 H77         3.6270   -4.0500   -3.7250 ho        1 MOL      0.400840
    172 H78         3.2520   -2.9790   -4.7230 ho        1 MOL      0.400840
    173 O25         1.7940   -5.4990   -2.6810 oh        1 MOL     -0.818754
    174 H79         2.3070   -5.2560   -3.4540 ho        1 MOL      0.400840
    175 H80         1.6620   -6.4390   -2.7610 ho        1 MOL      0.400840
    176 O26        -0.3100   -3.0500   -4.4500 oh        1 MOL     -0.818754
    177 H81        -0.2260   -3.4910   -5.2950 ho        1 MOL      0.400840
    178 H82        -0.9630   -2.3700   -4.5990 ho        1 MOL      0.400840
@<TRIPOS>BOND
     1    1    2 1   
     2    1    4 1   
     3    1    5 1   
     4    1    6 1   
     5    2    3 2   
     6    2    7 1   
     7    7    8 1   
     8    7   15 1   
     9    8    9 1   
    10    8   11 1   
    11    8   16 1   
    12    9   10 2   
    13    9   19 1   
    14   11   12 1   
    15   11   17 1   
    16   11   18 1   
    17   12   13 1   
    18   12   14 1   
    19   19   20 1   
    20   19   24 1   
    21   20   21 1   
    22   20   23 1   
    23   20   25 1   
    24   21   22 2   
    25   21   29 1   
    26   23   26 1   
    27   23   27 1   
    28   23   28 1   
    29   29   30 1   
    30   29   37 1   
    31   30   31 1   
    32   30   33 1   
    33   30   38 1   
    34   31   32 2   
    35   31   41 1   
    36   33   34 1   
    37   33   39 1   
    38   33   40 1   
    39   34   35 1   
    40   34   36 1   
    41   41   42 1   
    42   41   45 1   
    43   42   43 1   
    44   42   46 1   
    45   42   47 1   
    46   43   44 2   
    47   43   48 1   
    48   48   49 1   
    49   48   56 1   
    50   49   50 1   
    51   49   52 1   
    52   49   57 1   
    53   50   51 2   
    54   50   62 1   
    55   52   53 1   
    56   52   58 1   
    57   52   59 1   
    58   53   54 1   
    59   53   55 2   
    60   54   60 1   
    61   54   61 1   
    62   62   63 1   
    63   62   66 1   
    64   63   64 1   
    65   63   67 1   
    66   63   68 1   
    67   64   65 2   
    68   64   69 1   
    69   69   70 1   
    70   69   76 1   
    71   70   71 1   
    72   70   73 1   
    73   70   77 1   
    74   71   72 2   
    75   71   83 1   
    76   73   74 1   
    77   73   75 1   
    78   73   78 1   
    79   74   80 1   
    80   74   81 1   
    81   74   82 1   
    82   75   79 1   
    83   83   84 1   
    84   83   91 1   
    85   84   85 1   
    86   84   87 1   
    87   84   92 1   
    88   85   86 2   
    89   85  102 1   
    90   87   88 1   
    91   87   89 1   
    92   87   93 1   
    93   88   90 1   
    94   88   94 1   
    95   88   95 1   
    96   89   96 1   
    97   89   97 1   
    98   89   98 1   
    99   90   99 1   
   100   90  100 1   
   101   90  101 1   
   102  102  103 1   
   103  102  110 1   
   104  103  104 1   
   105  103  106 1   
   106  103  111 1   
   107  104  105 2   
   108  104  114 1   
   109  106  107 1   
   110  106  112 1   
   111  106  113 1   
   112  107  108 1   
   113  107  109 1   
   114  114  115 1   
   115  114  125 1   
   116  115  116 1   
   117  115  118 1   
   118  115  126 1   
   119  116  117 2   
   120  116  134 1   
   121  118  119 1   
   122  118  127 1   
   123  118  128 1   
   124  119  120 ar  
   125  119  121 ar  
   126  120  122 ar  
   127  120  129 1   
   128  121  123 ar  
   129  121  130 1   
   130  122  124 ar  
   131  122  131 1   
   132  123  124 ar  
   133  123  132 1   
   134  124  133 1   
   135  134  135 1   
   136  134  140 1   
   137  135  136 1   
   138  135  138 1   
   139  135  141 1   
   140  136  137 2   
   141  136  148 1   
   142  138  139 1   
   143  138  142 1   
   144  138  143 1   
   145  139  140 1   
   146  139  144 1   
   147  139  145 1   
   148  140  146 1   
   149  140  147 1   
   150  148  149 1   
   151  148  157 1   
   152  149  150 1   
   153  149  152 1   
   154  149  158 1   
   155  150  151 2   
   156  150  163 1   
   157  152  153 1   
   158  152  159 1   
   159  152  160 1   
   160  153  154 1   
   161  153  161 1   
   162  153  162 1   
   163  154  155 1   
   164  154  156 1   
   165  163  164 1   
   166  163  168 1   
   167  164  165 1   
   168  164  166 1   
   169  164  167 1   
   170  170  171 1   
   171  170  172 1   
   172  173  174 1   
   173  173  175 1   
   174  176  177 1   
   175  176  178 1   
@<TRIPOS>SUBSTRUCTURE
     1 MOL         1 TEMP              0 ****  ****    0 ROOT
