@<TRIPOS>MOLECULE
MOL
  195   189     1     0     0
SMALL
resp


@<TRIPOS>ATOM
      1 C1          2.3200    7.7660    3.0980 c3        1 MOL     -0.400371
      2 C2          1.6370    6.5180    2.3630 c         1 MOL      0.729757
      3 O1          1.2020    5.5600    2.9940 o         1 MOL     -0.586059
      4 H1          1.7580    8.0080    3.9990 hc        1 MOL      0.095123
      5 H2          3.3460    7.5130    3.3670 hc        1 MOL      0.095123
      6 H3          2.3210    8.6260    2.4290 hc        1 MOL      0.095123
      7 N1          1.4330    6.6410    1.0610 n         1 MOL     -0.498481
      8 C3          0.8590    5.5910    0.2930 c3        1 MOL      0.049235
      9 C4          1.9070    4.6150   -0.2670 c         1 MOL      0.347347
     10 O2          1.5170    3.8380   -1.1040 o         1 MOL     -0.473797
     11 C5          0.0100    6.1950   -0.7970 c3        1 MOL     -0.181502
     12 C6          0.9290    7.0050   -1.8190 c         1 MOL      0.727496
     13 O3          1.5430    8.0540   -1.5230 o         1 MOL     -0.707204
     14 O4          1.1270    6.5650   -3.0030 o         1 MOL     -0.707204
     15 H4          1.4600    7.5490    0.6150 hn        1 MOL      0.246078
     16 H5          0.1850    4.8850    0.7700 h1        1 MOL      0.138578
     17 H6         -0.6480    6.9210   -0.3260 hc        1 MOL      0.042524
     18 H7         -0.5130    5.4090   -1.3200 hc        1 MOL      0.042524
     19 N2          3.1270    4.5730    0.2430 n         1 MOL     -0.190965
     20 C7          4.0180    3.4970   -0.1740 c3        1 MOL      0.445672
     21 C8          4.2610    2.5200    1.0350 c         1 MOL      0.134908
     22 O5          4.2460    3.0650    2.1390 o         1 MOL     -0.513741
     23 C9          5.4160    4.0820   -0.4510 c3        1 MOL     -0.000975
     24 C10         5.5740    4.9520   -1.7120 c3        1 MOL     -0.020754
     25 C11         4.4600    6.0380   -1.8010 c3        1 MOL      0.256568
     26 C12         4.8250    6.8920   -3.0470 c3        1 MOL      0.015493
     27 N3          3.9470    8.1010   -3.1460 n4        1 MOL     -0.455660
     28 H8          3.4170    5.1600    1.0150 hn        1 MOL      0.150665
     29 H9          3.5500    2.9870   -1.0160 h1        1 MOL     -0.071694
     30 H10         6.1740    3.3120   -0.5370 hc        1 MOL     -0.020708
     31 H11         5.7030    4.7410    0.3780 hc        1 MOL     -0.020708
     32 H12         5.5280    4.4190   -2.6610 hc        1 MOL     -0.019891
     33 H13         6.5250    5.4650   -1.5350 hc        1 MOL     -0.019891
     34 H14         4.4580    6.6840   -0.9290 hc        1 MOL     -0.052231
     35 H15         3.4820    5.5930   -2.0170 hc        1 MOL     -0.052231
     36 H16         4.7500    6.3070   -3.9530 hx        1 MOL      0.058833
     37 H17         5.8360    7.2710   -2.9030 hx        1 MOL      0.058833
     38 H18         4.4090    8.8790   -2.6960 hn        1 MOL      0.331043
     39 H19         3.6150    8.2770   -4.0750 hn        1 MOL      0.331043
     40 H20         3.0950    7.8740   -2.6640 hn        1 MOL      0.331043
     41 N4          4.3940    1.2250    0.9310 n         1 MOL     -0.153158
     42 C13         4.2400    0.3240   -0.1770 c3        1 MOL      0.242804
     43 C14         4.9470    0.7120   -1.4760 c         1 MOL      0.558220
     44 O6          4.2990    0.9600   -2.4820 o         1 MOL     -0.570828
     45 C15         2.7660   -0.0810   -0.3820 c3        1 MOL      0.061135
     46 C16         1.9310   -0.5830    0.8180 c         1 MOL      0.634900
     47 O7          0.7440   -0.2580    0.7550 o         1 MOL     -0.686154
     48 O8          2.4220   -1.2890    1.6990 o         1 MOL     -0.686154
     49 H21         4.4580    0.8550    1.8660 hn        1 MOL      0.256356
     50 H22         4.6590   -0.6410    0.1120 h1        1 MOL     -0.103860
     51 H23         2.6400   -0.8860   -1.1030 hc        1 MOL     -0.035959
     52 H24         2.2520    0.8050   -0.7480 hc        1 MOL     -0.035959
     53 N5          6.2680    0.8800   -1.4600 n         1 MOL     -0.516856
     54 C17         7.2600    0.3570   -0.4900 c3        1 MOL      0.189578
     55 C18         7.9270   -0.9570   -0.8730 c         1 MOL      0.457458
     56 O9          8.2400   -1.1730   -2.0720 o         1 MOL     -0.542215
     57 H25         6.6940    1.2670   -2.2890 hn        1 MOL      0.317556
     58 H26         6.8840    0.2950    0.5320 h1        1 MOL      0.006405
     59 H27         8.1240    1.0190   -0.4820 h1        1 MOL      0.006405
     60 N6          8.3290   -1.8320    0.1010 n         1 MOL     -0.424200
     61 C19         8.0340   -1.7420    1.5650 c3        1 MOL      0.043939
     62 C20         6.5580   -2.0350    1.9470 c         1 MOL      0.461358
     63 O10         6.0720   -1.3830    2.8670 o         1 MOL     -0.539552
     64 C21         8.9430   -2.7400    2.2670 c3        1 MOL     -0.208136
     65 C22        10.4410   -2.7890    1.7890 c         1 MOL      0.650136
     66 O11        11.0250   -3.8970    1.8730 o         1 MOL     -0.625434
     67 O12        11.0100   -1.7370    1.3620 o         1 MOL     -0.625434
     68 H28         8.7300   -2.7190   -0.1720 hn        1 MOL      0.304329
     69 H29         8.4540   -0.8100    1.9330 h1        1 MOL      0.091419
     70 H30         8.5180   -3.7500    2.2470 hc        1 MOL      0.038926
     71 H31         8.8550   -2.5030    3.3270 hc        1 MOL      0.038926
     72 N7          6.0020   -2.9740    1.2280 n         1 MOL     -0.215857
     73 C23         4.7030   -3.5900    1.3780 c3        1 MOL     -0.216492
     74 C24         4.0330   -3.8750    0.0210 c         1 MOL      0.699885
     75 O13         4.4000   -3.2810   -0.9740 o         1 MOL     -0.539766
     76 H32         6.5610   -3.4340    0.5220 hn        1 MOL      0.213752
     77 H33         4.1190   -2.9440    2.0400 h1        1 MOL      0.101384
     78 H34         4.9020   -4.5700    1.8010 h1        1 MOL      0.101384
     79 N8          2.9590   -4.6490    0.0900 n         1 MOL     -0.631432
     80 C25         2.0300   -4.9050   -1.0170 c3        1 MOL     -0.035260
     81 C26         1.1320   -3.6410   -1.2410 c         1 MOL      0.705836
     82 O14         0.7800   -3.0540   -0.2160 o         1 MOL     -0.633650
     83 C27         1.2440   -6.2330   -0.7690 c3        1 MOL      0.391373
     84 C28         0.7010   -6.6950   -2.1390 c3        1 MOL     -0.348881
     85 O15         0.0410   -6.1020    0.1550 oh        1 MOL     -0.661022
     86 H35         2.6250   -5.0120    0.9660 hn        1 MOL      0.266236
     87 H36         2.6110   -5.0470   -1.9360 h1        1 MOL      0.100020
     88 H37         1.8930   -7.0040   -0.3570 h1        1 MOL      0.028164
     89 H38         0.2670   -6.5160    0.9950 ho        1 MOL      0.377381
     90 H39         1.4620   -6.9840   -2.8650 hc        1 MOL      0.105722
     91 H40         0.0920   -7.5850   -1.9850 hc        1 MOL      0.105722
     92 H41        -0.0290   -5.9480   -2.4450 hc        1 MOL      0.105722
     93 N9          0.7450   -3.2320   -2.4620 n         1 MOL     -0.512440
     94 C29        -0.0850   -2.0960   -2.9630 c3        1 MOL      0.017836
     95 C30        -1.3230   -2.7070   -3.7950 c         1 MOL      0.361141
     96 O16        -1.2430   -3.4010   -4.7800 o         1 MOL     -0.479665
     97 C31         0.7750   -1.1000   -3.7710 c3        1 MOL      0.422245
     98 C32         0.1580    0.3270   -3.6380 c3        1 MOL     -0.384360
     99 C33         1.1020   -1.4720   -5.2300 c3        1 MOL     -0.278639
    100 C34        -1.1160    0.5590   -4.4870 c3        1 MOL     -0.207994
    101 H42         1.2330   -3.6770   -3.2250 hn        1 MOL      0.255389
    102 H43        -0.4080   -1.6840   -1.9980 h1        1 MOL      0.043474
    103 H44         1.7360   -1.0070   -3.2720 hc        1 MOL     -0.039844
    104 H45         0.9180    1.0250   -3.9690 hc        1 MOL      0.149349
    105 H46        -0.0030    0.4740   -2.5760 hc        1 MOL      0.149349
    106 H47         1.5040   -2.4730   -5.4090 hc        1 MOL      0.069997
    107 H48         0.1610   -1.4060   -5.7850 hc        1 MOL      0.069997
    108 H49         1.7400   -0.6570   -5.5720 hc        1 MOL      0.069997
    109 H50        -1.9610   -0.0600   -4.2190 hc        1 MOL      0.060166
    110 H51        -1.5500    1.5590   -4.3940 hc        1 MOL      0.060166
    111 H52        -0.8930    0.4610   -5.5520 hc        1 MOL      0.060166
    112 N10        -2.4290   -2.5900   -3.0790 n         1 MOL      0.002993
    113 C35        -3.7330   -3.0700   -3.5470 c3        1 MOL     -0.702189
    114 C36        -4.8640   -2.0570   -3.1380 c         1 MOL      0.705566
    115 O17        -5.9830   -2.3650   -3.5470 o         1 MOL     -0.545980
    116 C37        -4.1480   -4.5380   -3.2280 c3        1 MOL      0.640363
    117 C38        -3.8940   -4.7940   -1.7260 c3        1 MOL     -0.421286
    118 O18        -3.3510   -5.4260   -4.0010 oh        1 MOL     -0.667147
    119 H53        -2.3770   -2.1520   -2.1700 hn        1 MOL      0.180021
    120 H54        -3.5730   -2.9960   -4.6210 h1        1 MOL      0.223639
    121 H55        -5.1870   -4.7800   -3.4750 h1        1 MOL      0.029062
    122 H56        -2.5090   -4.9940   -4.1820 ho        1 MOL      0.394821
    123 H57        -4.3770   -5.7110   -1.4170 hc        1 MOL      0.090759
    124 H58        -2.8210   -4.8910   -1.5560 hc        1 MOL      0.090759
    125 H59        -4.1560   -3.9450   -1.0920 hc        1 MOL      0.090759
    126 N11        -4.6140   -0.8820   -2.5990 n         1 MOL     -0.263208
    127 C39        -5.5910    0.0990   -2.1410 c3        1 MOL     -0.475546
    128 C40        -6.5990   -0.4400   -1.1720 c         1 MOL      0.612508
    129 O19        -7.4720   -1.3350   -1.3970 o         1 MOL     -0.485511
    130 C41        -6.2760    0.8360   -3.3260 c3        1 MOL      0.433130
    131 C42        -5.2920    1.5290   -4.2920 c3        1 MOL     -0.442447
    132 O20        -7.0660    1.8520   -2.9010 oh        1 MOL     -0.589340
    133 H60        -3.6760   -0.6580   -2.2840 hn        1 MOL      0.257353
    134 H61        -4.9430    0.7970   -1.6140 h1        1 MOL      0.193929
    135 H62        -6.9670    0.2710   -3.9410 h1        1 MOL      0.080157
    136 H63        -6.5030    2.4740   -2.4320 ho        1 MOL      0.363664
    137 H64        -5.8580    2.1820   -4.9500 hc        1 MOL      0.115781
    138 H65        -4.6830    2.1760   -3.6540 hc        1 MOL      0.115781
    139 H66        -4.6460    0.8310   -4.8300 hc        1 MOL      0.115781
    140 N12        -6.5390    0.1520    0.0640 n         1 MOL     -0.412227
    141 C43        -7.4550   -0.1600    1.1320 c3        1 MOL     -0.028950
    142 C44        -6.6970   -0.2740    2.4540 c         1 MOL      0.716038
    143 O21        -6.9250   -1.2520    3.1590 o         1 MOL     -0.573155
    144 C45        -8.6000    0.8850    1.1950 c3        1 MOL     -0.159487
    145 C46        -9.5270    0.9550    0.0190 c3        1 MOL      0.084167
    146 C47       -10.7550    1.9380    0.2060 c3        1 MOL     -0.091680
    147 C48       -11.7660    1.7080   -0.9400 c3        1 MOL      0.012857
    148 N13       -13.0310    2.4190   -0.6880 n4        1 MOL     -0.199031
    149 H67        -5.8330    0.8560    0.1910 hn        1 MOL      0.260042
    150 H68        -7.8650   -1.1750    1.1250 h1        1 MOL      0.099850
    151 H69        -8.1260    1.8630    1.1230 hc        1 MOL      0.047447
    152 H70        -9.1370    0.8580    2.1440 hc        1 MOL      0.047447
    153 H71        -9.9890   -0.0080   -0.1980 hc        1 MOL      0.009784
    154 H72        -8.9080    1.1690   -0.8490 hc        1 MOL      0.009784
    155 H73       -10.3790    2.9550    0.2490 hc        1 MOL      0.050384
    156 H74       -11.2370    1.7480    1.1620 hc        1 MOL      0.050384
    157 H75       -11.9810    0.6430   -0.9440 hx        1 MOL      0.091286
    158 H76       -11.3830    1.9570   -1.9210 hx        1 MOL      0.091286
    159 H77       -12.8360    3.3880   -0.5180 hn        1 MOL      0.236816
    160 H78       -13.6690    2.2950   -1.4590 hn        1 MOL      0.236816
    161 H79       -13.4310    2.0900    0.1800 hn        1 MOL      0.236816
    162 N14        -5.7760    0.5910    2.7090 n         1 MOL     -0.589026
    163 C49        -4.8800    0.6320    3.9100 c3        1 MOL     -0.091626
    164 C50        -5.6670    0.8710    5.2090 c         1 MOL      0.605749
    165 O22        -6.5790    1.6980    5.3560 o         1 MOL     -0.537550
    166 C51        -3.7340    1.6330    3.7100 c3        1 MOL     -0.284648
    167 C52        -2.8780    1.3020    2.5600 c3        1 MOL      0.082889
    168 C53        -2.1720   -0.0420    2.6590 c         1 MOL      0.660817
    169 O23        -1.3270   -0.2460    3.5340 o         1 MOL     -0.712342
    170 O24        -2.2520   -0.9060    1.7530 o         1 MOL     -0.712342
    171 H80        -5.6960    1.3230    2.0140 hn        1 MOL      0.359480
    172 H81        -4.3720   -0.3190    4.1110 h1        1 MOL      0.084252
    173 H82        -3.1420    1.4860    4.6150 hc        1 MOL      0.116687
    174 H83        -4.1570    2.6340    3.6590 hc        1 MOL      0.116687
    175 H84        -2.1600    2.0890    2.3330 hc        1 MOL     -0.019942
    176 H85        -3.5340    1.2080    1.6990 hc        1 MOL     -0.019942
    177 N15        -5.2050    0.1460    6.2320 n         1 MOL     -0.393294
    178 C54        -5.8780   -0.0810    7.4770 c3        1 MOL     -0.123594
    179 H86        -6.5770    0.7340    7.6650 h1        1 MOL      0.085499
    180 H87        -6.4250   -1.0230    7.4290 h1        1 MOL      0.085499
    181 H88        -5.1460   -0.1250    8.2840 h1        1 MOL      0.085499
    182 H89        -4.3290   -0.3480    6.1320 hn        1 MOL      0.304325
    183 Ca1        -0.0260   -2.3230    2.2630 Ca        1 MOL      1.711381
    184 O25         1.2130   -1.6190    4.3700 oh        1 MOL     -0.834033
    185 H90         2.0860   -1.2430    4.2870 ho        1 MOL      0.414923
    186 H91         1.0780   -1.6960    5.3130 ho        1 MOL      0.414923
    187 O26        -1.3230   -3.4070    4.1020 oh        1 MOL     -0.834033
    188 H92        -1.3960   -4.3490    4.2450 ho        1 MOL      0.414923
    189 H93        -1.8800   -3.0200    4.7680 ho        1 MOL      0.414923
    190 O27         1.3330   -4.3830    2.8630 oh        1 MOL     -0.834033
    191 H94         1.9610   -4.2750    3.5800 ho        1 MOL      0.414923
    192 H95         1.2730   -5.3340    2.7510 ho        1 MOL      0.414923
    193 O28        -1.7310   -4.0250    1.3240 oh        1 MOL     -0.834033
    194 H96        -2.6170   -4.3070    1.5570 ho        1 MOL      0.414923
    195 H97        -1.3610   -4.7630    0.8370 ho        1 MOL      0.414923
@<TRIPOS>BOND
     1    1    2 1   
     2    1    4 1   
     3    1    5 1   
     4    1    6 1   
     5    2    3 2   
     6    2    7 1   
     7    7    8 1   
     8    7   15 1   
     9    8    9 1   
    10    8   11 1   
    11    8   16 1   
    12    9   10 2   
    13    9   19 1   
    14   11   12 1   
    15   11   17 1   
    16   11   18 1   
    17   12   13 1   
    18   12   14 1   
    19   19   20 1   
    20   19   28 1   
    21   20   21 1   
    22   20   23 1   
    23   20   29 1   
    24   21   22 2   
    25   21   41 1   
    26   23   24 1   
    27   23   30 1   
    28   23   31 1   
    29   24   25 1   
    30   24   32 1   
    31   24   33 1   
    32   25   26 1   
    33   25   34 1   
    34   25   35 1   
    35   26   27 1   
    36   26   36 1   
    37   26   37 1   
    38   27   38 1   
    39   27   39 1   
    40   27   40 1   
    41   41   42 1   
    42   41   49 1   
    43   42   43 1   
    44   42   45 1   
    45   42   50 1   
    46   43   44 2   
    47   43   53 1   
    48   45   46 1   
    49   45   51 1   
    50   45   52 1   
    51   46   47 1   
    52   46   48 1   
    53   53   54 1   
    54   53   57 1   
    55   54   55 1   
    56   54   58 1   
    57   54   59 1   
    58   55   56 2   
    59   55   60 1   
    60   60   61 1   
    61   60   68 1   
    62   61   62 1   
    63   61   64 1   
    64   61   69 1   
    65   62   63 2   
    66   62   72 1   
    67   64   65 1   
    68   64   70 1   
    69   64   71 1   
    70   65   66 1   
    71   65   67 1   
    72   72   73 1   
    73   72   76 1   
    74   73   74 1   
    75   73   77 1   
    76   73   78 1   
    77   74   75 2   
    78   74   79 1   
    79   79   80 1   
    80   79   86 1   
    81   80   81 1   
    82   80   83 1   
    83   80   87 1   
    84   81   82 2   
    85   81   93 1   
    86   83   84 1   
    87   83   85 1   
    88   83   88 1   
    89   84   90 1   
    90   84   91 1   
    91   84   92 1   
    92   85   89 1   
    93   93   94 1   
    94   93  101 1   
    95   94   95 1   
    96   94   97 1   
    97   94  102 1   
    98   95   96 2   
    99   95  112 1   
   100   97   98 1   
   101   97   99 1   
   102   97  103 1   
   103   98  100 1   
   104   98  104 1   
   105   98  105 1   
   106   99  106 1   
   107   99  107 1   
   108   99  108 1   
   109  100  109 1   
   110  100  110 1   
   111  100  111 1   
   112  112  113 1   
   113  112  119 1   
   114  113  114 1   
   115  113  116 1   
   116  113  120 1   
   117  114  115 2   
   118  114  126 1   
   119  116  117 1   
   120  116  118 1   
   121  116  121 1   
   122  117  123 1   
   123  117  124 1   
   124  117  125 1   
   125  118  122 1   
   126  126  127 1   
   127  126  133 1   
   128  127  128 1   
   129  127  130 1   
   130  127  134 1   
   131  128  129 2   
   132  128  140 1   
   133  130  131 1   
   134  130  132 1   
   135  130  135 1   
   136  131  137 1   
   137  131  138 1   
   138  131  139 1   
   139  132  136 1   
   140  140  141 1   
   141  140  149 1   
   142  141  142 1   
   143  141  144 1   
   144  141  150 1   
   145  142  143 2   
   146  142  162 1   
   147  144  145 1   
   148  144  151 1   
   149  144  152 1   
   150  145  146 1   
   151  145  153 1   
   152  145  154 1   
   153  146  147 1   
   154  146  155 1   
   155  146  156 1   
   156  147  148 1   
   157  147  157 1   
   158  147  158 1   
   159  148  159 1   
   160  148  160 1   
   161  148  161 1   
   162  162  163 1   
   163  162  171 1   
   164  163  164 1   
   165  163  166 1   
   166  163  172 1   
   167  164  165 2   
   168  164  177 1   
   169  166  167 1   
   170  166  173 1   
   171  166  174 1   
   172  167  168 1   
   173  167  175 1   
   174  167  176 1   
   175  168  169 1   
   176  168  170 1   
   177  177  178 1   
   178  177  182 1   
   179  178  179 1   
   180  178  180 1   
   181  178  181 1   
   182  184  185 1   
   183  184  186 1   
   184  187  188 1   
   185  187  189 1   
   186  190  191 1   
   187  190  192 1   
   188  193  194 1   
   189  193  195 1   
@<TRIPOS>SUBSTRUCTURE
     1 MOL         1 TEMP              0 ****  ****    0 ROOT
