@<TRIPOS>MOLECULE
MOL
  192   187     1     0     0
SMALL
resp


@<TRIPOS>ATOM
      1 C1          9.7600    0.8180    2.1250 c3        1 MOL     -0.464733
      2 C2          8.4960    0.3430    1.2810 c         1 MOL      0.785284
      3 O1          7.4060    0.3650    1.7800 o         1 MOL     -0.666226
      4 H1         10.0330    1.8320    1.8320 hc        1 MOL      0.114066
      5 H2          9.5160    0.8010    3.1870 hc        1 MOL      0.114066
      6 H3         10.5980    0.1480    1.9330 hc        1 MOL      0.114066
      7 N1          8.6960    0.0400    0.0260 n         1 MOL     -0.699958
      8 C3          7.5810   -0.1470   -0.9520 c3        1 MOL      0.455352
      9 C4          7.0070   -1.5980   -0.8760 c         1 MOL      0.369639
     10 O2          6.9420   -2.2390   -1.9100 o         1 MOL     -0.438062
     11 C5          7.9330    0.3440   -2.3530 c3        1 MOL     -0.269585
     12 C6          9.2860   -0.2920   -2.8320 c         1 MOL      0.650140
     13 O3          9.8540   -1.1570   -2.2220 o         1 MOL     -0.624682
     14 O4          9.6630   -0.0420   -4.0230 o         1 MOL     -0.624682
     15 H4          9.6370   -0.0370   -0.3220 hn        1 MOL      0.300669
     16 H5          6.8090    0.5450   -0.6270 h1        1 MOL     -0.001706
     17 H6          8.0580    1.4200   -2.2370 hc        1 MOL      0.073179
     18 H7          7.1550    0.2590   -3.1030 hc        1 MOL      0.073179
     19 N2          6.7190   -2.1400    0.2850 n         1 MOL     -0.444378
     20 C7          6.0060   -3.4960    0.5600 c3        1 MOL      0.319283
     21 C8          4.6230   -3.6640   -0.0210 c         1 MOL      0.315115
     22 O5          4.2490   -4.8110   -0.4290 o         1 MOL     -0.518171
     23 C9          6.0800   -3.8950    2.0600 c3        1 MOL     -0.089849
     24 C10         7.4500   -3.6430    2.7630 c3        1 MOL      0.192446
     25 C11         8.6140   -4.5900    2.3900 c3        1 MOL     -0.192390
     26 C12         9.9780   -4.2100    2.9990 c3        1 MOL      0.024118
     27 N3          9.8680   -4.3500    4.4500 n4        1 MOL     -0.217720
     28 H8          7.0240   -1.5650    1.0520 hn        1 MOL      0.228051
     29 H9          6.5810   -4.2840    0.0590 h1        1 MOL      0.020711
     30 H10         5.9270   -4.9780    2.0620 hc        1 MOL      0.012447
     31 H11         5.3220   -3.3070    2.5840 hc        1 MOL      0.012447
     32 H12         7.2170   -3.7800    3.8160 hc        1 MOL     -0.055052
     33 H13         7.7140   -2.5880    2.6320 hc        1 MOL     -0.055052
     34 H14         8.7120   -4.6550    1.3090 hc        1 MOL      0.091065
     35 H15         8.3250   -5.5490    2.8270 hc        1 MOL      0.091065
     36 H16        10.3090   -3.2000    2.7960 hx        1 MOL      0.092928
     37 H17        10.7540   -4.9100    2.6680 hx        1 MOL      0.092928
     38 H18         9.2180   -3.7090    4.8810 hn        1 MOL      0.250011
     39 H19         9.4080   -5.2080    4.6860 hn        1 MOL      0.250011
     40 H20        10.7540   -4.2380    4.9310 hn        1 MOL      0.250011
     41 N4          3.7610   -2.6460   -0.0150 n         1 MOL     -0.230060
     42 C13         3.6920   -1.3480    0.7420 c3        1 MOL      0.006427
     43 C14         3.9040   -0.1160   -0.1380 c         1 MOL      0.014268
     44 O6          3.7450   -0.1720   -1.3830 o         1 MOL     -0.380656
     45 C15         2.4210   -1.3900    1.6340 c3        1 MOL     -0.269004
     46 C16         1.2430   -1.8330    0.8030 c         1 MOL      0.603472
     47 O7          0.9010   -1.3200   -0.2610 o         1 MOL     -0.636542
     48 O8          0.4860   -2.7380    1.3040 o         1 MOL     -0.636542
     49 H21         2.8880   -2.9120   -0.4350 hn        1 MOL      0.339355
     50 H22         4.4900   -1.1890    1.4710 h1        1 MOL      0.130316
     51 H23         2.2480   -0.3940    2.0340 hc        1 MOL      0.100919
     52 H24         2.6590   -2.0450    2.4660 hc        1 MOL      0.100919
     53 N5          4.1780    1.0720    0.4380 n         1 MOL     -0.165028
     54 C17         4.2840    2.3070   -0.2990 c3        1 MOL      0.103439
     55 C18         2.9070    2.8190   -0.8410 c         1 MOL      0.500744
     56 O9          1.8880    2.0780   -0.7830 o         1 MOL     -0.459540
     57 H25         4.2100    1.2350    1.4360 hn        1 MOL      0.258054
     58 H26         4.9790    2.2000   -1.1390 h1        1 MOL      0.002351
     59 H27         4.7170    3.0610    0.3430 h1        1 MOL      0.002351
     60 N6          2.9190    3.9990   -1.3360 n         1 MOL     -0.397911
     61 C19         1.7700    4.6440   -1.9760 c3        1 MOL      0.255665
     62 C20         1.8790    6.2060   -1.8600 c         1 MOL      0.483081
     63 O10         2.9790    6.7350   -1.7720 o         1 MOL     -0.508176
     64 C21         1.7260    4.1410   -3.4290 c3        1 MOL     -0.360960
     65 C22         1.0050    2.7760   -3.6180 c         1 MOL      0.687891
     66 O11        -0.1900    2.6150   -3.2450 o         1 MOL     -0.650192
     67 O12         1.6470    1.7890   -4.0720 o         1 MOL     -0.650192
     68 H28         3.7880    4.5250   -1.2910 hn        1 MOL      0.256827
     69 H29         0.8640    4.3310   -1.4560 h1        1 MOL      0.131815
     70 H30         2.7590    4.0190   -3.7570 hc        1 MOL      0.095927
     71 H31         1.1950    4.9210   -3.9750 hc        1 MOL      0.095927
     72 N7          0.8030    7.0240   -2.1610 n         1 MOL     -0.534809
     73 C23        -0.5840    6.5850   -2.4220 c3        1 MOL      0.137748
     74 C24        -1.3150    6.2740   -1.1060 c         1 MOL      0.559650
     75 O13        -0.7980    6.5000   -0.0690 o         1 MOL     -0.509674
     76 H32         0.8880    8.0060   -1.9340 hn        1 MOL      0.324070
     77 H33        -0.5260    5.6880   -3.0380 h1        1 MOL      0.012396
     78 H34        -1.1640    7.3430   -2.9550 h1        1 MOL      0.012396
     79 N8         -2.3940    5.5490   -1.1430 n         1 MOL     -0.567525
     80 C25        -2.8870    4.7830    0.0700 c3        1 MOL     -0.082425
     81 C26        -1.9540    3.7270    0.5490 c         1 MOL      1.050374
     82 O14        -1.3200    3.0610   -0.2840 o         1 MOL     -0.899455
     83 C27        -4.2460    4.2440   -0.3960 c3        1 MOL      0.211365
     84 C28        -4.9500    3.3800    0.7450 c3        1 MOL     -0.128076
     85 O15        -4.1560    3.2460   -1.4180 oh        1 MOL     -0.581204
     86 H35        -2.8030    5.2570   -2.0200 hn        1 MOL      0.296985
     87 H36        -3.0030    5.4840    0.8960 h1        1 MOL      0.085119
     88 H37        -4.9270    5.0440   -0.6850 h1        1 MOL      0.055735
     89 H38        -4.0460    3.6520   -2.2800 ho        1 MOL      0.397866
     90 H39        -5.0540    3.9180    1.6900 hc        1 MOL      0.047820
     91 H40        -5.9630    3.2350    0.3870 hc        1 MOL      0.047820
     92 H41        -4.3960    2.4590    0.9540 hc        1 MOL      0.047820
     93 N9         -1.7320    3.6990    1.9040 n         1 MOL     -0.807008
     94 C29        -0.9130    2.6810    2.6240 c3        1 MOL      0.135584
     95 C30        -1.2480    1.1710    2.3150 c         1 MOL      0.487308
     96 O16        -0.7180    0.6370    1.3140 o         1 MOL     -0.486899
     97 C31         0.6020    2.9800    2.5420 c3        1 MOL      0.480687
     98 C32         0.8780    4.4840    2.5930 c3        1 MOL     -0.254636
     99 C33         1.2560    2.2660    3.7550 c3        1 MOL     -0.489873
    100 C34         2.3250    4.9350    2.3570 c3        1 MOL     -0.129018
    101 H42        -2.2090    4.3440    2.5160 hn        1 MOL      0.342650
    102 H43        -1.0990    2.8180    3.6910 h1        1 MOL      0.004035
    103 H44         1.0650    2.5330    1.6610 hc        1 MOL     -0.122493
    104 H45         0.6140    4.8890    3.5630 hc        1 MOL      0.065803
    105 H46         0.3520    4.9370    1.7450 hc        1 MOL      0.065803
    106 H47         0.7400    2.6340    4.6450 hc        1 MOL      0.108484
    107 H48         1.1400    1.1820    3.7630 hc        1 MOL      0.108484
    108 H49         2.3200    2.4930    3.8510 hc        1 MOL      0.108484
    109 H50         2.8700    4.5230    3.2020 hc        1 MOL      0.038803
    110 H51         2.6950    4.4590    1.4570 hc        1 MOL      0.038803
    111 H52         2.4230    6.0190    2.2930 hc        1 MOL      0.038803
    112 N10        -2.0190    0.5850    3.2160 n         1 MOL     -0.454058
    113 C35        -2.4220   -0.7960    3.1220 c3        1 MOL     -0.091078
    114 C36        -3.9860   -0.9270    3.2170 c         1 MOL      0.463400
    115 O17        -4.4640   -2.0610    3.3020 o         1 MOL     -0.541921
    116 C37        -1.6400   -1.7210    4.1000 c3        1 MOL      0.379534
    117 C38        -1.6830   -1.1770    5.5870 c3        1 MOL     -0.203470
    118 O18        -0.2300   -1.7250    3.7070 oh        1 MOL     -0.564940
    119 H53        -2.3830    1.0770    4.0250 hn        1 MOL      0.317853
    120 H54        -2.2410   -1.2190    2.1420 h1        1 MOL      0.129785
    121 H55        -2.0770   -2.7270    4.1160 h1        1 MOL      0.018796
    122 H56        -0.2600   -2.1250    2.8380 ho        1 MOL      0.313130
    123 H57        -1.7130   -1.9170    6.3810 hc        1 MOL      0.043289
    124 H58        -0.8200   -0.5780    5.8780 hc        1 MOL      0.043289
    125 H59        -2.4660   -0.4270    5.6880 hc        1 MOL      0.043289
    126 N11        -4.8070    0.1440    3.0940 n         1 MOL     -0.181899
    127 C39        -6.2850   -0.0270    2.8710 c3        1 MOL     -0.312335
    128 C40        -6.4000   -0.4190    1.3700 c         1 MOL      0.601753
    129 O19        -6.4590    0.4740    0.5200 o         1 MOL     -0.514737
    130 C41        -7.0120    1.2940    3.1560 c3        1 MOL      0.604236
    131 C42        -8.5100    1.2940    3.0670 c3        1 MOL     -0.637330
    132 O20        -6.7030    1.7990    4.4210 oh        1 MOL     -0.667806
    133 H60        -4.4340    1.0810    3.1640 hn        1 MOL      0.176936
    134 H61        -6.5160   -0.8100    3.6030 h1        1 MOL      0.143610
    135 H62        -6.5870    1.9860    2.4230 h1        1 MOL     -0.062102
    136 H63        -7.1950    2.6070    4.5240 ho        1 MOL      0.400861
    137 H64        -8.8330    0.4620    2.4420 hc        1 MOL      0.160656
    138 H65        -8.9800    1.0630    4.0160 hc        1 MOL      0.160656
    139 H66        -8.8990    2.1910    2.5670 hc        1 MOL      0.160656
    140 N12        -6.4860   -1.7360    1.2530 n         1 MOL     -0.513619
    141 C43        -6.6020   -2.4420   -0.1300 c3        1 MOL      0.349758
    142 C44        -5.3320   -2.2660   -1.0730 c         1 MOL      0.463737
    143 O21        -4.9040   -1.1270   -1.2840 o         1 MOL     -0.523669
    144 C45        -7.8490   -2.1700   -0.8290 c3        1 MOL     -0.478564
    145 C46        -9.1040   -2.4150    0.0700 c3        1 MOL      0.128447
    146 C47       -10.3140   -2.3240   -0.7570 c3        1 MOL      0.019217
    147 C48       -11.5540   -2.5020    0.0790 c3        1 MOL      0.056068
    148 N13       -12.7720   -2.5170   -0.7660 n4        1 MOL     -0.096226
    149 H67        -6.4010   -2.2220    2.1330 hn        1 MOL      0.289011
    150 H68        -6.5500   -3.5170    0.0360 h1        1 MOL     -0.002145
    151 H69        -7.8560   -2.8480   -1.6830 hc        1 MOL      0.134920
    152 H70        -7.8420   -1.1280   -1.1620 hc        1 MOL      0.134920
    153 H71        -9.1570   -1.6150    0.8090 hc        1 MOL     -0.000217
    154 H72        -8.9200   -3.3350    0.6110 hc        1 MOL     -0.000217
    155 H73       -10.2590   -3.1430   -1.4740 hc        1 MOL      0.024710
    156 H74       -10.3150   -1.3710   -1.2810 hc        1 MOL      0.024710
    157 H75       -11.7360   -1.7190    0.8120 hx        1 MOL      0.040526
    158 H76       -11.3890   -3.4450    0.6010 hx        1 MOL      0.040526
    159 H77       -12.9950   -1.6580   -1.2450 hn        1 MOL      0.166614
    160 H78       -12.6610   -3.1690   -1.5370 hn        1 MOL      0.166614
    161 H79       -13.5800   -2.9000   -0.2890 hn        1 MOL      0.166614
    162 N14        -4.6580   -3.2790   -1.4970 n         1 MOL     -0.556738
    163 C49        -3.4130   -3.0940   -2.2600 c3        1 MOL      0.539446
    164 C50        -2.1430   -2.6880   -1.4490 c         1 MOL      0.321265
    165 O22        -1.4840   -1.6770   -1.8200 o         1 MOL     -0.575990
    166 C51        -3.1310   -4.3580   -3.0020 c3        1 MOL     -0.147860
    167 C52        -3.9300   -4.4370   -4.3630 c3        1 MOL     -0.414974
    168 C53        -3.7520   -5.8730   -4.8520 c         1 MOL      0.780206
    169 O23        -4.5980   -6.7470   -4.6980 o         1 MOL     -0.650246
    170 O24        -2.7640   -6.1360   -5.5220 o         1 MOL     -0.650246
    171 H80        -5.0730   -4.1990   -1.5000 hn        1 MOL      0.316890
    172 H81        -3.4680   -2.2230   -2.9120 h1        1 MOL     -0.047766
    173 H82        -3.3310   -5.1820   -2.3190 hc        1 MOL      0.082525
    174 H83        -2.0650   -4.3360   -3.2320 hc        1 MOL      0.082525
    175 H84        -3.4890   -3.6940   -5.0330 hc        1 MOL      0.096629
    176 H85        -4.9790   -4.2620   -4.1480 hc        1 MOL      0.096629
    177 N15        -1.7920   -3.2960   -0.3570 n         1 MOL     -0.279155
    178 C54        -2.2210   -4.5850    0.2330 c3        1 MOL      0.060596
    179 H86        -3.2850   -4.7320    0.0480 h1        1 MOL      0.003879
    180 H87        -1.6560   -5.3990   -0.2220 h1        1 MOL      0.003879
    181 H88        -2.0380   -4.5720    1.3070 h1        1 MOL      0.003879
    182 H89        -1.0130   -2.8590    0.1100 hn        1 MOL      0.336922
    183 Ca1        -0.3140    0.6540   -1.4410 Ca        1 MOL      1.717789
    184 O25        -2.9140    0.7110   -0.8090 oh        1 MOL     -0.790414
    185 H90        -3.5560    0.1110   -1.1830 ho        1 MOL      0.376099
    186 H91        -3.3350    1.5720   -0.8350 ho        1 MOL      0.376099
    187 O26         1.5690   -0.5400   -3.1140 oh        1 MOL     -0.790414
    188 H92         2.3060   -0.5350   -2.5190 ho        1 MOL      0.376099
    189 H93         1.6960    0.2380   -3.6630 ho        1 MOL      0.376099
    190 O27        -1.3380    0.0790   -3.9700 oh        1 MOL     -0.790414
    191 H94        -2.2360   -0.2090   -4.1610 ho        1 MOL      0.376099
    192 H95        -1.1710    0.7840   -4.6060 ho        1 MOL      0.376099
@<TRIPOS>BOND
     1    1    2 1   
     2    1    4 1   
     3    1    5 1   
     4    1    6 1   
     5    2    3 2   
     6    2    7 1   
     7    7    8 1   
     8    7   15 1   
     9    8    9 1   
    10    8   11 1   
    11    8   16 1   
    12    9   10 2   
    13    9   19 1   
    14   11   12 1   
    15   11   17 1   
    16   11   18 1   
    17   12   13 1   
    18   12   14 1   
    19   19   20 1   
    20   19   28 1   
    21   20   21 1   
    22   20   23 1   
    23   20   29 1   
    24   21   22 2   
    25   21   41 1   
    26   23   24 1   
    27   23   30 1   
    28   23   31 1   
    29   24   25 1   
    30   24   32 1   
    31   24   33 1   
    32   25   26 1   
    33   25   34 1   
    34   25   35 1   
    35   26   27 1   
    36   26   36 1   
    37   26   37 1   
    38   27   38 1   
    39   27   39 1   
    40   27   40 1   
    41   41   42 1   
    42   41   49 1   
    43   42   43 1   
    44   42   45 1   
    45   42   50 1   
    46   43   44 2   
    47   43   53 1   
    48   45   46 1   
    49   45   51 1   
    50   45   52 1   
    51   46   47 1   
    52   46   48 1   
    53   53   54 1   
    54   53   57 1   
    55   54   55 1   
    56   54   58 1   
    57   54   59 1   
    58   55   56 2   
    59   55   60 1   
    60   60   61 1   
    61   60   68 1   
    62   61   62 1   
    63   61   64 1   
    64   61   69 1   
    65   62   63 2   
    66   62   72 1   
    67   64   65 1   
    68   64   70 1   
    69   64   71 1   
    70   65   66 1   
    71   65   67 1   
    72   72   73 1   
    73   72   76 1   
    74   73   74 1   
    75   73   77 1   
    76   73   78 1   
    77   74   75 2   
    78   74   79 1   
    79   79   80 1   
    80   79   86 1   
    81   80   81 1   
    82   80   83 1   
    83   80   87 1   
    84   81   82 2   
    85   81   93 1   
    86   83   84 1   
    87   83   85 1   
    88   83   88 1   
    89   84   90 1   
    90   84   91 1   
    91   84   92 1   
    92   85   89 1   
    93   93   94 1   
    94   93  101 1   
    95   94   95 1   
    96   94   97 1   
    97   94  102 1   
    98   95   96 2   
    99   95  112 1   
   100   97   98 1   
   101   97   99 1   
   102   97  103 1   
   103   98  100 1   
   104   98  104 1   
   105   98  105 1   
   106   99  106 1   
   107   99  107 1   
   108   99  108 1   
   109  100  109 1   
   110  100  110 1   
   111  100  111 1   
   112  112  113 1   
   113  112  119 1   
   114  113  114 1   
   115  113  116 1   
   116  113  120 1   
   117  114  115 2   
   118  114  126 1   
   119  116  117 1   
   120  116  118 1   
   121  116  121 1   
   122  117  123 1   
   123  117  124 1   
   124  117  125 1   
   125  118  122 1   
   126  126  127 1   
   127  126  133 1   
   128  127  128 1   
   129  127  130 1   
   130  127  134 1   
   131  128  129 2   
   132  128  140 1   
   133  130  131 1   
   134  130  132 1   
   135  130  135 1   
   136  131  137 1   
   137  131  138 1   
   138  131  139 1   
   139  132  136 1   
   140  140  141 1   
   141  140  149 1   
   142  141  142 1   
   143  141  144 1   
   144  141  150 1   
   145  142  143 2   
   146  142  162 1   
   147  144  145 1   
   148  144  151 1   
   149  144  152 1   
   150  145  146 1   
   151  145  153 1   
   152  145  154 1   
   153  146  147 1   
   154  146  155 1   
   155  146  156 1   
   156  147  148 1   
   157  147  157 1   
   158  147  158 1   
   159  148  159 1   
   160  148  160 1   
   161  148  161 1   
   162  162  163 1   
   163  162  171 1   
   164  163  164 1   
   165  163  166 1   
   166  163  172 1   
   167  164  165 2   
   168  164  177 1   
   169  166  167 1   
   170  166  173 1   
   171  166  174 1   
   172  167  168 1   
   173  167  175 1   
   174  167  176 1   
   175  168  169 1   
   176  168  170 1   
   177  177  178 1   
   178  177  182 1   
   179  178  179 1   
   180  178  180 1   
   181  178  181 1   
   182  184  185 1   
   183  184  186 1   
   184  187  188 1   
   185  187  189 1   
   186  190  191 1   
   187  190  192 1   
@<TRIPOS>SUBSTRUCTURE
     1 MOL         1 TEMP              0 ****  ****    0 ROOT
