@<TRIPOS>MOLECULE
MOL
  192   187     1     0     0
SMALL
resp


@<TRIPOS>ATOM
      1 C1         -1.5820   -6.8000    5.0120 c3        1 MOL     -0.331422
      2 C2         -1.8090   -6.5290    3.4950 c         1 MOL      0.709168
      3 O1         -1.8990   -7.4130    2.6840 o         1 MOL     -0.595950
      4 H1         -0.5800   -6.4770    5.2920 hc        1 MOL      0.085010
      5 H2         -2.3180   -6.2450    5.5950 hc        1 MOL      0.085010
      6 H3         -1.6890   -7.8660    5.2120 hc        1 MOL      0.085010
      7 N1         -1.8230   -5.2850    3.0990 n         1 MOL     -0.562321
      8 C3         -1.9930   -4.9060    1.6990 c3        1 MOL      0.031954
      9 C4         -0.7380   -4.1470    1.1350 c         1 MOL      0.531476
     10 O2         -0.8590   -3.7790   -0.0570 o         1 MOL     -0.489090
     11 C5         -3.2650   -4.0380    1.4550 c3        1 MOL     -0.076625
     12 C6         -3.3500   -2.7080    2.2650 c         1 MOL      0.575167
     13 O3         -4.4450   -2.0780    2.1600 o         1 MOL     -0.658521
     14 O4         -2.3940   -2.1420    2.8760 o         1 MOL     -0.658521
     15 H4         -1.7700   -4.5630    3.8060 hn        1 MOL      0.283833
     16 H5         -2.0200   -5.7420    0.9990 h1        1 MOL      0.157770
     17 H6         -4.1350   -4.6400    1.7360 hc        1 MOL      0.061739
     18 H7         -3.4100   -3.8060    0.4010 hc        1 MOL      0.061739
     19 N2          0.3450   -3.8380    1.8890 n         1 MOL     -0.475228
     20 C7          1.6010   -3.1240    1.6180 c3        1 MOL      0.087292
     21 C8          2.5780   -3.9460    0.6970 c         1 MOL      0.399452
     22 O5          2.7670   -5.1660    0.9150 o         1 MOL     -0.535790
     23 C9          2.1190   -2.6340    3.0250 c3        1 MOL     -0.311419
     24 C10         1.1190   -1.7610    3.8950 c3        1 MOL     -0.040381
     25 C11         0.6070   -0.5320    3.1000 c3        1 MOL     -0.088212
     26 C12        -0.1730    0.4110    4.0900 c3        1 MOL     -0.024877
     27 N3         -1.4450   -0.2290    4.4570 n4        1 MOL     -0.325884
     28 H8          0.2500   -4.2680    2.8040 hn        1 MOL      0.269829
     29 H9          1.3940   -2.2490    1.0120 h1        1 MOL      0.117435
     30 H10         2.9710   -1.9640    2.9280 hc        1 MOL      0.136413
     31 H11         2.3900   -3.5000    3.6200 hc        1 MOL      0.136413
     32 H12         1.6270   -1.4980    4.8240 hc        1 MOL      0.027028
     33 H13         0.2750   -2.4410    4.0400 hc        1 MOL      0.027028
     34 H14        -0.1080   -0.9020    2.3640 hc        1 MOL      0.106160
     35 H15         1.4760    0.0450    2.7910 hc        1 MOL      0.106160
     36 H16        -0.4650    1.3460    3.6210 hx        1 MOL      0.077709
     37 H17         0.4330    0.6270    4.9720 hx        1 MOL      0.077709
     38 H18        -1.3630   -0.8560    5.2400 hn        1 MOL      0.293092
     39 H19        -2.1440    0.4360    4.7800 hn        1 MOL      0.293092
     40 H20        -1.8610   -0.7280    3.6790 hn        1 MOL      0.293092
     41 N4          3.1610   -3.3800   -0.3100 n         1 MOL     -0.400995
     42 C13         3.0870   -1.9620   -0.8020 c3        1 MOL      0.269865
     43 C14         3.3030   -0.8810    0.2350 c         1 MOL      0.503833
     44 O6          2.3740   -0.2080    0.6300 o         1 MOL     -0.654843
     45 C15         2.0400   -1.7800   -1.9070 c3        1 MOL     -0.181929
     46 C16         2.1990   -2.6980   -3.0940 c         1 MOL      0.646138
     47 O7          1.2540   -3.4030   -3.5020 o         1 MOL     -0.667486
     48 O8          3.3610   -2.8770   -3.6280 o         1 MOL     -0.667486
     49 H21         3.6250   -4.0410   -0.9220 hn        1 MOL      0.344507
     50 H22         3.9590   -1.9120   -1.4580 h1        1 MOL     -0.021610
     51 H23         2.0460   -0.7620   -2.2930 hc        1 MOL      0.036259
     52 H24         1.0890   -1.9620   -1.3960 hc        1 MOL      0.036259
     53 N5          4.5100   -0.5740    0.6420 n         1 MOL     -0.400279
     54 C17         5.7960   -1.2010    0.1850 c3        1 MOL      0.003473
     55 C18         6.9650   -1.3290    1.1340 c         1 MOL      0.472863
     56 O9          6.8120   -1.1730    2.3640 o         1 MOL     -0.547845
     57 H25         4.5100    0.1750    1.3250 hn        1 MOL      0.290517
     58 H26         6.0850   -0.6350   -0.6940 h1        1 MOL      0.082928
     59 H27         5.4490   -2.1840   -0.1380 h1        1 MOL      0.082928
     60 N6          8.1730   -1.5280    0.5300 n         1 MOL     -0.312831
     61 C19         8.6000   -1.7060   -0.8180 c3        1 MOL     -0.039494
     62 C20         8.3880   -0.4400   -1.7200 c         1 MOL      0.326526
     63 O10         8.3200   -0.5520   -2.9710 o         1 MOL     -0.510408
     64 C21        10.0880   -2.1250   -1.0170 c3        1 MOL     -0.122373
     65 C22        10.5290   -3.2900   -0.1120 c         1 MOL      0.697525
     66 O11         9.7120   -3.9730    0.4840 o         1 MOL     -0.636031
     67 O12        11.7990   -3.4390   -0.1230 o         1 MOL     -0.636031
     68 H28         8.8960   -1.3720    1.2130 hn        1 MOL      0.261140
     69 H29         8.0350   -2.5750   -1.1490 h1        1 MOL      0.101756
     70 H30        10.6920   -1.2470   -0.8010 hc        1 MOL      0.048733
     71 H31        10.2220   -2.4810   -2.0470 hc        1 MOL      0.048733
     72 N7          8.2290    0.7420   -1.1350 n         1 MOL     -0.112312
     73 C23         7.7430    1.9890   -1.6490 c3        1 MOL     -0.159375
     74 C24         6.9870    2.8690   -0.6560 c         1 MOL      0.655231
     75 O13         6.7280    2.3880    0.4720 o         1 MOL     -0.542860
     76 H32         8.3000    0.7140   -0.1240 hn        1 MOL      0.155972
     77 H33         7.1060    1.7820   -2.5120 h1        1 MOL      0.089124
     78 H34         8.6280    2.4760   -2.0790 h1        1 MOL      0.089124
     79 N8          6.6140    4.0820   -1.0680 n         1 MOL     -0.688413
     80 C25         5.7940    4.9840   -0.2320 c3        1 MOL      0.072897
     81 C26         4.4430    4.3140   -0.1780 c         1 MOL      0.716042
     82 O14         4.0360    3.8620   -1.2650 o         1 MOL     -0.560795
     83 C27         5.8400    6.4980   -0.6670 c3        1 MOL      0.402007
     84 C28         7.2760    6.9760   -0.6940 c3        1 MOL     -0.249845
     85 O15         5.1430    7.2870    0.2520 oh        1 MOL     -0.681108
     86 H35         6.7250    4.1890   -2.0590 hn        1 MOL      0.351019
     87 H36         6.1820    4.8310    0.7710 h1        1 MOL      0.082354
     88 H37         5.4000    6.5980   -1.6490 h1        1 MOL     -0.004378
     89 H38         4.9530    8.1650   -0.1020 ho        1 MOL      0.423397
     90 H39         7.2630    8.0310   -0.9470 hc        1 MOL      0.059754
     91 H40         7.8150    6.8780    0.2510 hc        1 MOL      0.059754
     92 H41         7.7740    6.4750   -1.5260 hc        1 MOL      0.059754
     93 N9          3.7470    4.2220    0.9350 n         1 MOL     -0.518021
     94 C29         2.3900    3.6590    1.0710 c3        1 MOL     -0.335826
     95 C30         1.2700    4.5150    0.3570 c         1 MOL      0.520045
     96 O16         1.4440    5.7500    0.4070 o         1 MOL     -0.507242
     97 C31         1.9120    3.4160    2.5090 c3        1 MOL      0.312104
     98 C32         1.7680    4.6050    3.4370 c3        1 MOL      0.068543
     99 C33         2.8370    2.2890    3.0860 c3        1 MOL      0.084324
    100 C34         0.8190    4.2410    4.6550 c3        1 MOL     -0.343538
    101 H42         4.0770    4.7190    1.7450 hn        1 MOL      0.297676
    102 H43         2.2740    2.6810    0.6110 h1        1 MOL      0.219742
    103 H44         0.9320    2.9510    2.4070 hc        1 MOL     -0.157620
    104 H45         1.3070    5.4510    2.9410 hc        1 MOL      0.020071
    105 H46         2.7020    4.9290    3.8710 hc        1 MOL      0.020071
    106 H47         2.4130    1.9130    4.0130 hc        1 MOL     -0.019430
    107 H48         3.0070    1.4610    2.4020 hc        1 MOL     -0.019430
    108 H49         3.8130    2.6760    3.3910 hc        1 MOL     -0.019430
    109 H50         0.8200    5.1450    5.2710 hc        1 MOL      0.074334
    110 H51        -0.1760    4.0470    4.2430 hc        1 MOL      0.074334
    111 H52         1.1710    3.3700    5.2020 hc        1 MOL      0.074334
    112 N10         0.3330    4.0360   -0.5060 n         1 MOL     -0.261510
    113 C35        -0.4920    4.8050   -1.3730 c3        1 MOL     -0.096436
    114 C36        -1.9510    4.5240   -1.0280 c         1 MOL      0.449365
    115 O17        -2.7890    5.4100   -1.2050 o         1 MOL     -0.530393
    116 C37        -0.4020    4.5210   -2.8870 c3        1 MOL      0.369340
    117 C38        -0.5680    3.0420   -3.2130 c3        1 MOL     -0.141237
    118 O18         0.8300    4.9510   -3.3200 oh        1 MOL     -0.601332
    119 H53         0.5390    3.0670   -0.7090 hn        1 MOL      0.221945
    120 H54        -0.1490    5.8230   -1.1840 h1        1 MOL      0.081849
    121 H55        -1.1590    5.0660   -3.4420 h1        1 MOL     -0.001048
    122 H56         0.8490    5.8730   -3.0820 ho        1 MOL      0.384965
    123 H57         0.0410    2.4410   -2.5400 hc        1 MOL      0.047093
    124 H58        -1.5800    2.7090   -2.9780 hc        1 MOL      0.047093
    125 H59        -0.3670    2.9250   -4.2840 hc        1 MOL      0.047093
    126 N11        -2.1660    3.3400   -0.4600 n         1 MOL     -0.353319
    127 C39        -3.4590    2.9020    0.0880 c3        1 MOL     -0.025234
    128 C40        -4.5030    2.6930   -0.9970 c         1 MOL      0.471794
    129 O19        -4.2040    2.8800   -2.1950 o         1 MOL     -0.465458
    130 C41        -3.8530    3.8130    1.2030 c3        1 MOL      0.307796
    131 C42        -2.8420    4.1730    2.3060 c3        1 MOL     -0.418586
    132 O20        -4.8540    3.2330    2.0030 oh        1 MOL     -0.665969
    133 H60        -1.3810    2.7190   -0.3270 hn        1 MOL      0.245346
    134 H61        -3.2530    1.9490    0.5660 h1        1 MOL      0.142436
    135 H62        -4.3330    4.7320    0.8700 h1        1 MOL      0.036123
    136 H63        -5.5120    3.8870    2.2660 ho        1 MOL      0.418059
    137 H64        -1.9410    4.6430    1.9050 hc        1 MOL      0.119002
    138 H65        -3.3200    4.8620    2.9950 hc        1 MOL      0.119002
    139 H66        -2.5360    3.3010    2.8740 hc        1 MOL      0.119002
    140 N12        -5.7810    2.4520   -0.6390 n         1 MOL     -0.279286
    141 C43        -7.0780    2.5370   -1.3780 c3        1 MOL     -0.135523
    142 C44        -7.6690    1.2290   -1.9770 c         1 MOL      0.611128
    143 O21        -8.7000    1.2960   -2.5740 o         1 MOL     -0.568495
    144 C45        -8.1230    3.2940   -0.5840 c3        1 MOL     -0.022392
    145 C46        -8.3080    2.8150    0.8370 c3        1 MOL      0.138050
    146 C47        -9.5700    3.1650    1.6310 c3        1 MOL     -0.183370
    147 C48       -10.0190    4.6610    1.6370 c3        1 MOL      0.141274
    148 N13       -11.3680    4.7150    2.2330 n4        1 MOL     -0.296929
    149 H67        -5.8810    2.2340    0.3410 hn        1 MOL      0.210081
    150 H68        -6.7660    2.9990   -2.3070 h1        1 MOL      0.128368
    151 H69        -9.0730    3.1460   -1.0910 hc        1 MOL      0.020657
    152 H70        -7.9820    4.3720   -0.4500 hc        1 MOL      0.020657
    153 H71        -7.4740    3.1760    1.4290 hc        1 MOL     -0.014811
    154 H72        -8.2680    1.7190    0.8100 hc        1 MOL     -0.014811
    155 H73        -9.5580    2.8780    2.6840 hc        1 MOL      0.075797
    156 H74       -10.3330    2.5720    1.1210 hc        1 MOL      0.075797
    157 H75       -10.1130    4.9220    0.5810 hx        1 MOL      0.044042
    158 H76        -9.3530    5.3210    2.1970 hx        1 MOL      0.044042
    159 H77       -11.3500    4.8020    3.2460 hn        1 MOL      0.243701
    160 H78       -11.8850    5.4620    1.7950 hn        1 MOL      0.243701
    161 H79       -11.9370    3.9450    1.9150 hn        1 MOL      0.243701
    162 N14        -6.9000    0.1420   -1.9620 n         1 MOL     -0.277785
    163 C49        -7.2040   -1.1940   -2.4210 c3        1 MOL     -0.075981
    164 C50        -7.8080   -2.0780   -1.3960 c         1 MOL      0.545435
    165 O22        -7.4500   -1.9680   -0.2640 o         1 MOL     -0.474740
    166 C51        -5.9070   -1.8840   -2.8710 c3        1 MOL      0.113113
    167 C52        -4.7240   -1.7890   -1.8670 c3        1 MOL     -0.055129
    168 C53        -3.5280   -2.6550   -2.2160 c         1 MOL      0.799088
    169 O23        -3.6380   -3.8540   -2.6400 o         1 MOL     -0.824540
    170 O24        -2.3460   -2.2250   -2.0330 o         1 MOL     -0.824540
    171 H80        -6.0200    0.2950   -1.4700 hn        1 MOL      0.124089
    172 H81        -7.8490   -1.1430   -3.3050 h1        1 MOL      0.061496
    173 H82        -5.4920   -1.4970   -3.8020 hc        1 MOL     -0.034939
    174 H83        -6.2200   -2.9080   -3.0320 hc        1 MOL     -0.034939
    175 H84        -5.0360   -2.1290   -0.8830 hc        1 MOL      0.044134
    176 H85        -4.4000   -0.7490   -1.7890 hc        1 MOL      0.044134
    177 N15        -8.7660   -2.9660   -1.8070 n         1 MOL     -0.373526
    178 C54        -9.6050   -3.5920   -0.7420 c3        1 MOL     -0.211592
    179 H86       -10.2310   -4.3680   -1.1820 h1        1 MOL      0.106881
    180 H87        -8.9590   -4.0340    0.0170 h1        1 MOL      0.106881
    181 H88       -10.2380   -2.8330   -0.2840 h1        1 MOL      0.106881
    182 H89        -9.0050   -3.0480   -2.7890 hn        1 MOL      0.279118
    183 Ca1        -1.1190   -4.4030   -2.7810 Ca        1 MOL      1.794138
    184 O25         0.3730   -5.9890   -1.5200 oh        1 MOL     -1.002478
    185 H90         0.0380   -6.4330   -0.7390 ho        1 MOL      0.469888
    186 H91         1.0130   -6.6010   -1.8900 ho        1 MOL      0.469888
    187 O26        -2.8450   -6.2390   -1.3920 oh        1 MOL     -1.002478
    188 H92        -3.6920   -6.0650   -1.7910 ho        1 MOL      0.469888
    189 H93        -2.7490   -7.1850   -1.4220 ho        1 MOL      0.469888
    190 O27        -1.2430   -3.0150   -4.9730 oh        1 MOL     -1.002478
    191 H94        -0.5610   -2.4030   -5.2630 ho        1 MOL      0.469888
    192 H95        -1.9750   -2.8590   -5.5760 ho        1 MOL      0.469888
@<TRIPOS>BOND
     1    1    2 1   
     2    1    4 1   
     3    1    5 1   
     4    1    6 1   
     5    2    3 2   
     6    2    7 1   
     7    7    8 1   
     8    7   15 1   
     9    8    9 1   
    10    8   11 1   
    11    8   16 1   
    12    9   10 2   
    13    9   19 1   
    14   11   12 1   
    15   11   17 1   
    16   11   18 1   
    17   12   13 1   
    18   12   14 1   
    19   19   20 1   
    20   19   28 1   
    21   20   21 1   
    22   20   23 1   
    23   20   29 1   
    24   21   22 2   
    25   21   41 1   
    26   23   24 1   
    27   23   30 1   
    28   23   31 1   
    29   24   25 1   
    30   24   32 1   
    31   24   33 1   
    32   25   26 1   
    33   25   34 1   
    34   25   35 1   
    35   26   27 1   
    36   26   36 1   
    37   26   37 1   
    38   27   38 1   
    39   27   39 1   
    40   27   40 1   
    41   41   42 1   
    42   41   49 1   
    43   42   43 1   
    44   42   45 1   
    45   42   50 1   
    46   43   44 2   
    47   43   53 1   
    48   45   46 1   
    49   45   51 1   
    50   45   52 1   
    51   46   47 1   
    52   46   48 1   
    53   53   54 1   
    54   53   57 1   
    55   54   55 1   
    56   54   58 1   
    57   54   59 1   
    58   55   56 2   
    59   55   60 1   
    60   60   61 1   
    61   60   68 1   
    62   61   62 1   
    63   61   64 1   
    64   61   69 1   
    65   62   63 2   
    66   62   72 1   
    67   64   65 1   
    68   64   70 1   
    69   64   71 1   
    70   65   66 1   
    71   65   67 1   
    72   72   73 1   
    73   72   76 1   
    74   73   74 1   
    75   73   77 1   
    76   73   78 1   
    77   74   75 2   
    78   74   79 1   
    79   79   80 1   
    80   79   86 1   
    81   80   81 1   
    82   80   83 1   
    83   80   87 1   
    84   81   82 2   
    85   81   93 1   
    86   83   84 1   
    87   83   85 1   
    88   83   88 1   
    89   84   90 1   
    90   84   91 1   
    91   84   92 1   
    92   85   89 1   
    93   93   94 1   
    94   93  101 1   
    95   94   95 1   
    96   94   97 1   
    97   94  102 1   
    98   95   96 2   
    99   95  112 1   
   100   97   98 1   
   101   97   99 1   
   102   97  103 1   
   103   98  100 1   
   104   98  104 1   
   105   98  105 1   
   106   99  106 1   
   107   99  107 1   
   108   99  108 1   
   109  100  109 1   
   110  100  110 1   
   111  100  111 1   
   112  112  113 1   
   113  112  119 1   
   114  113  114 1   
   115  113  116 1   
   116  113  120 1   
   117  114  115 2   
   118  114  126 1   
   119  116  117 1   
   120  116  118 1   
   121  116  121 1   
   122  117  123 1   
   123  117  124 1   
   124  117  125 1   
   125  118  122 1   
   126  126  127 1   
   127  126  133 1   
   128  127  128 1   
   129  127  130 1   
   130  127  134 1   
   131  128  129 2   
   132  128  140 1   
   133  130  131 1   
   134  130  132 1   
   135  130  135 1   
   136  131  137 1   
   137  131  138 1   
   138  131  139 1   
   139  132  136 1   
   140  140  141 1   
   141  140  149 1   
   142  141  142 1   
   143  141  144 1   
   144  141  150 1   
   145  142  143 2   
   146  142  162 1   
   147  144  145 1   
   148  144  151 1   
   149  144  152 1   
   150  145  146 1   
   151  145  153 1   
   152  145  154 1   
   153  146  147 1   
   154  146  155 1   
   155  146  156 1   
   156  147  148 1   
   157  147  157 1   
   158  147  158 1   
   159  148  159 1   
   160  148  160 1   
   161  148  161 1   
   162  162  163 1   
   163  162  171 1   
   164  163  164 1   
   165  163  166 1   
   166  163  172 1   
   167  164  165 2   
   168  164  177 1   
   169  166  167 1   
   170  166  173 1   
   171  166  174 1   
   172  167  168 1   
   173  167  175 1   
   174  167  176 1   
   175  168  169 1   
   176  168  170 1   
   177  177  178 1   
   178  177  182 1   
   179  178  179 1   
   180  178  180 1   
   181  178  181 1   
   182  184  185 1   
   183  184  186 1   
   184  187  188 1   
   185  187  189 1   
   186  190  191 1   
   187  190  192 1   
@<TRIPOS>SUBSTRUCTURE
     1 MOL         1 TEMP              0 ****  ****    0 ROOT
