@<TRIPOS>MOLECULE
MOL
  181   177     1     0     0
SMALL
resp


@<TRIPOS>ATOM
      1 C1          4.7140   -5.5160    4.4440 c3        1 MOL     -0.444515
      2 C2          4.5570   -4.0380    3.9770 c         1 MOL      0.557571
      3 O1          3.6570   -3.2770    4.3200 o         1 MOL     -0.552907
      4 H1          5.7420   -5.6890    4.7590 hc        1 MOL      0.127786
      5 H2          4.0420   -5.7060    5.2810 hc        1 MOL      0.127786
      6 H3          4.4680   -6.1860    3.6200 hc        1 MOL      0.127786
      7 N1          5.6050   -3.4590    3.4380 n         1 MOL     -0.224235
      8 C3          6.7490   -4.0480    2.6350 c3        1 MOL     -0.320639
      9 C4          6.3630   -4.2020    1.1510 c         1 MOL      0.806003
     10 O2          5.6410   -3.2850    0.6090 o         1 MOL     -0.663035
     11 C5          7.9440   -3.0980    2.6930 c3        1 MOL      0.048444
     12 C6          7.7300   -1.5470    2.8090 c         1 MOL      0.580687
     13 O3          8.6850   -0.8120    3.0820 o         1 MOL     -0.654305
     14 O4          6.6740   -1.0420    2.3620 o         1 MOL     -0.654305
     15 H4          5.4890   -2.4550    3.5410 hn        1 MOL      0.228439
     16 H5          7.0440   -4.9900    3.0840 h1        1 MOL      0.108106
     17 H6          8.6100   -3.3600    1.8720 hc        1 MOL      0.025863
     18 H7          8.5460   -3.3210    3.5820 hc        1 MOL      0.025863
     19 N2          6.8580   -5.2660    0.5350 n         1 MOL     -0.604847
     20 C7          6.5810   -5.8380   -0.8750 c3        1 MOL      0.255960
     21 C8          7.2350   -4.9840   -1.9760 c         1 MOL      0.368279
     22 O5          7.9280   -5.4880   -2.7960 o         1 MOL     -0.536575
     23 C9          5.0890   -5.9650   -1.2330 c3        1 MOL     -0.320444
     24 H8          7.4340   -5.8410    1.1360 hn        1 MOL      0.304797
     25 H9          6.9130   -6.8770   -0.9060 h1        1 MOL      0.040779
     26 H10         4.9600   -6.3520   -2.2420 hc        1 MOL      0.107888
     27 H11         4.4410   -6.4440   -0.5130 hc        1 MOL      0.107888
     28 H12         4.7150   -4.9360   -1.2420 hc        1 MOL      0.107888
     29 N3          7.0990   -3.6350   -1.8460 n         1 MOL      0.037081
     30 C10         7.5040   -2.5300   -2.7530 c3        1 MOL      0.002459
     31 C11         7.8470   -1.3390   -1.7900 c         1 MOL      0.156276
     32 O6          7.4260   -1.1970   -0.6420 o         1 MOL     -0.357066
     33 C12         6.3210   -2.2890   -3.6450 c3        1 MOL     -0.170133
     34 C13         5.0150   -2.0640   -2.8920 c         1 MOL      0.732155
     35 O7          4.9270   -1.3720   -1.8470 o         1 MOL     -0.684156
     36 O8          3.9330   -2.3630   -3.4410 o         1 MOL     -0.684156
     37 H13         6.4690   -3.3440   -1.1110 hn        1 MOL     -0.123140
     38 H14         8.4230   -2.8470   -3.2580 h1        1 MOL      0.059098
     39 H15         6.1680   -3.1680   -4.2740 hc        1 MOL      0.047552
     40 H16         6.4590   -1.4740   -4.3500 hc        1 MOL      0.047552
     41 N4          8.7840   -0.5700   -2.3470 n         1 MOL     -0.068920
     42 C14         9.5770    0.4980   -1.7030 c3        1 MOL     -0.455277
     43 C15         8.9330    1.9080   -1.4820 c         1 MOL      0.676455
     44 O9          9.3360    2.7200   -0.6450 o         1 MOL     -0.545937
     45 H17         9.1420   -0.7910   -3.2690 hn        1 MOL      0.228078
     46 H18        10.4360    0.6180   -2.3570 h1        1 MOL      0.180348
     47 H19         9.9800    0.0960   -0.7710 h1        1 MOL      0.180348
     48 N5          7.7770    2.0800   -2.0930 n         1 MOL     -0.598885
     49 C16         6.8870    3.2740   -1.8350 c3        1 MOL      0.199432
     50 C17         5.5620    2.9220   -1.1130 c         1 MOL      0.529477
     51 O10         5.0920    1.7810   -1.0450 o         1 MOL     -0.529829
     52 C18         6.5730    4.0520   -3.1060 c3        1 MOL     -0.363597
     53 C19         7.7460    4.6630   -3.7600 c         1 MOL      0.748191
     54 N6          7.5720    5.2430   -4.9680 n         1 MOL     -0.876284
     55 O11         8.8350    4.8160   -3.1920 o         1 MOL     -0.541423
     56 H20         7.4310    1.4460   -2.8080 hn        1 MOL      0.313679
     57 H21         7.4140    3.9050   -1.1190 h1        1 MOL      0.071857
     58 H22         5.8970    4.8830   -2.8960 hc        1 MOL      0.116828
     59 H23         6.0370    3.3900   -3.7960 hc        1 MOL      0.116828
     60 H24         6.6570    5.2640   -5.3970 hn        1 MOL      0.377079
     61 H25         8.2600    5.8910   -5.3190 hn        1 MOL      0.377079
     62 N7          4.7840    3.9320   -0.7370 n         1 MOL     -0.431153
     63 C20         3.4840    3.8290   -0.0180 c3        1 MOL      0.022721
     64 C21         2.6880    5.1120    0.0460 c         1 MOL      0.544175
     65 O12         3.0020    6.0210   -0.7240 o         1 MOL     -0.534580
     66 H26         5.1720    4.8640   -0.8170 hn        1 MOL      0.271026
     67 H27         3.7200    3.5050    0.9970 h1        1 MOL      0.093803
     68 H28         2.8980    3.0370   -0.4790 h1        1 MOL      0.093803
     69 N8          1.7270    5.3590    1.0210 n         1 MOL     -0.529130
     70 C22         1.0850    4.4520    1.8420 c3        1 MOL      0.011866
     71 C23        -0.2120    3.9370    1.1630 c         1 MOL      0.429741
     72 O13        -0.7040    4.4910    0.1910 o         1 MOL     -0.494369
     73 C24         0.8190    5.0080    3.1770 c3        1 MOL      0.488896
     74 C25         2.0670    5.2670    4.0430 c3        1 MOL     -0.241473
     75 O14         0.1280    6.2430    3.1130 oh        1 MOL     -0.641072
     76 H29         1.3320    6.2880    1.0390 hn        1 MOL      0.355507
     77 H30         1.6730    3.5480    1.9550 h1        1 MOL      0.006305
     78 H31         0.1520    4.3490    3.7210 h1        1 MOL     -0.029937
     79 H32        -0.7560    6.0510    3.4260 ho        1 MOL      0.413505
     80 H33         2.4650    4.2870    4.2910 hc        1 MOL      0.041965
     81 H34         2.8400    5.9100    3.6060 hc        1 MOL      0.041965
     82 H35         1.8160    5.7000    5.0160 hc        1 MOL      0.041965
     83 N9         -0.8410    2.8750    1.6990 n         1 MOL     -0.350701
     84 C26        -2.0120    2.1830    1.2180 c3        1 MOL     -0.005545
     85 C27        -3.0440    1.9600    2.2780 c         1 MOL      0.553302
     86 O15        -2.7130    1.9270    3.4760 o         1 MOL     -0.584217
     87 C28        -1.6020    0.8670    0.5290 c3        1 MOL     -0.111810
     88 C29        -0.4650    0.0760    1.3200 c3        1 MOL      0.172416
     89 C30        -1.1770    1.1550   -0.9320 c3        1 MOL     -0.507381
     90 C31        -0.3680   -1.4060    0.7940 c3        1 MOL      0.089935
     91 H36        -0.3700    2.4200    2.4700 hn        1 MOL      0.188769
     92 H37        -2.4630    2.8830    0.5140 h1        1 MOL      0.180080
     93 H38        -2.5200    0.2860    0.4810 hc        1 MOL      0.037821
     94 H39        -0.7720    0.0760    2.3610 hc        1 MOL     -0.042681
     95 H40         0.5030    0.5650    1.2810 hc        1 MOL     -0.042681
     96 H41        -0.2110    1.6280   -0.8940 hc        1 MOL      0.155362
     97 H42        -1.0070    0.2380   -1.4940 hc        1 MOL      0.155362
     98 H43        -1.9770    1.7310   -1.4090 hc        1 MOL      0.155362
     99 H44        -1.3350   -1.8990    0.7190 hc        1 MOL     -0.046955
    100 H45         0.1840   -1.3440   -0.1380 hc        1 MOL     -0.046955
    101 H46         0.3160   -1.9810    1.4250 hc        1 MOL     -0.046955
    102 N10        -4.3320    1.8100    1.8850 n         1 MOL     -0.401545
    103 C32        -5.0310    2.1690    0.6210 c3        1 MOL      0.386050
    104 C33        -6.4280    1.3990    0.5000 c         1 MOL      0.176485
    105 O16        -6.8220    0.7000    1.4050 o         1 MOL     -0.450716
    106 C34        -5.3650    3.6920    0.4970 c3        1 MOL     -0.060325
    107 C35        -5.7350    4.3440    1.8370 c         1 MOL      0.635614
    108 O17        -5.3300    5.4680    2.2100 o         1 MOL     -0.700257
    109 O18        -6.3970    3.6360    2.6190 o         1 MOL     -0.700257
    110 H47        -4.8840    1.4750    2.6580 hn        1 MOL      0.269357
    111 H48        -4.4820    1.8750   -0.2700 h1        1 MOL     -0.036875
    112 H49        -6.0810    3.8040   -0.3160 hc        1 MOL     -0.068266
    113 H50        -4.4310    4.1890    0.2210 hc        1 MOL     -0.068266
    114 N11        -7.1080    1.5300   -0.6140 n         1 MOL     -0.227003
    115 C36        -8.4000    0.8540   -0.8340 c3        1 MOL      0.231654
    116 C37        -8.4300    0.1490   -2.1810 c         1 MOL      0.175066
    117 O19        -8.0300    0.7620   -3.1970 o         1 MOL     -0.497419
    118 C38        -9.4950    1.9590   -0.6050 c3        1 MOL     -0.401477
    119 C39       -10.8740    1.3590   -0.6710 ca        1 MOL      0.265625
    120 C40       -11.4790    1.1680   -1.8920 ca        1 MOL     -0.266160
    121 C41       -11.5590    1.1040    0.5570 ca        1 MOL     -0.266160
    122 C42       -12.8360    0.8300   -1.9680 ca        1 MOL     -0.081965
    123 C43       -12.8440    0.6020    0.4340 ca        1 MOL     -0.081965
    124 C44       -13.4530    0.4750   -0.8030 ca        1 MOL     -0.142623
    125 H51        -6.6480    1.9620   -1.3880 hn        1 MOL      0.273152
    126 H52        -8.5620    0.1140   -0.0400 h1        1 MOL      0.033043
    127 H53        -9.4020    2.7040   -1.3970 hc        1 MOL      0.138768
    128 H54        -9.2970    2.4430    0.3440 hc        1 MOL      0.138768
    129 H55       -10.9780    1.1900   -2.8510 ha        1 MOL      0.171368
    130 H56       -11.0270    1.1020    1.5040 ha        1 MOL      0.171368
    131 H57       -13.3810    0.7780   -2.8970 ha        1 MOL      0.092935
    132 H58       -13.3860    0.3230    1.3320 ha        1 MOL      0.092935
    133 H59       -14.4630    0.0960   -0.8610 ha        1 MOL      0.078519
    134 N12        -9.0340   -1.0750   -2.3080 n         1 MOL      0.083240
    135 C45        -9.6230   -1.9260   -1.2510 c3        1 MOL      0.384741
    136 C46        -8.6820   -2.4560   -0.1540 c         1 MOL      0.293364
    137 O20        -9.1520   -2.6010    0.9420 o         1 MOL     -0.567653
    138 C47       -10.2790   -3.1050   -2.0320 c3        1 MOL     -0.256654
    139 C48       -10.5780   -2.4880   -3.4190 c3        1 MOL     -0.225882
    140 C49        -9.4170   -1.5510   -3.6340 c3        1 MOL      0.028168
    141 H60       -10.3860   -1.3970   -0.6760 h1        1 MOL     -0.044335
    142 H61        -9.5490   -3.9050   -2.1580 hc        1 MOL      0.097049
    143 H62       -11.2260   -3.3990   -1.5810 hc        1 MOL      0.097049
    144 H63       -10.4520   -3.1990   -4.2350 hc        1 MOL      0.063122
    145 H64       -11.4530   -1.8830   -3.6380 hc        1 MOL      0.063122
    146 H65        -8.6020   -2.0540   -4.1460 h1        1 MOL      0.031423
    147 H66        -9.8050   -0.6590   -4.1360 h1        1 MOL      0.031423
    148 N13        -7.4400   -2.7990   -0.4080 n         1 MOL     -0.140040
    149 C50        -6.4790   -3.4300    0.5560 c3        1 MOL      0.114603
    150 C51        -6.9030   -4.8480    0.8090 c         1 MOL      0.303815
    151 O21        -6.6770   -5.7670    0.0160 o         1 MOL     -0.561075
    152 C52        -5.0090   -3.5130   -0.0180 c3        1 MOL      0.001890
    153 C53        -4.5420   -2.1310   -0.4330 c3        1 MOL      0.035385
    154 C54        -4.8330   -1.5750   -1.8580 c         1 MOL      0.589771
    155 O22        -4.1040   -0.7360   -2.3860 o         1 MOL     -0.646635
    156 O23        -5.8010   -1.9280   -2.5220 o         1 MOL     -0.646635
    157 H67        -7.0980   -2.6370   -1.3440 hn        1 MOL      0.085594
    158 H68        -6.5190   -2.7850    1.4320 h1        1 MOL      0.079219
    159 H69        -4.9370   -4.2000   -0.8660 hc        1 MOL      0.016189
    160 H70        -4.3640   -3.8170    0.8050 hc        1 MOL      0.016189
    161 H71        -3.4510   -2.1620   -0.3460 hc        1 MOL     -0.037335
    162 H72        -4.7790   -1.4570    0.3930 hc        1 MOL     -0.037335
    163 N14        -7.4810   -5.1130    1.9460 n         1 MOL     -0.183713
    164 C55        -7.8720   -4.3450    3.0710 c3        1 MOL     -0.232904
    165 H73        -8.9600   -4.2750    3.1020 h1        1 MOL      0.093186
    166 H74        -7.5120   -4.8240    3.9810 h1        1 MOL      0.093186
    167 H75        -7.4460   -3.3450    2.9940 h1        1 MOL      0.093186
    168 H76        -7.5640   -6.1090    2.1180 hn        1 MOL      0.220915
    169 Ca1         5.0490   -0.3970    0.6450 Ca        1 MOL      1.713305
    170 O24         3.2770   -1.7370    2.2880 oh        1 MOL     -0.852560
    171 H77         3.2450   -2.2320    3.1010 ho        1 MOL      0.417845
    172 H78         2.8850   -2.3110    1.6300 ho        1 MOL      0.417845
    173 O25         2.6320    0.3260   -0.5600 oh        1 MOL     -0.852560
    174 H79         2.6670    0.3050   -1.5190 ho        1 MOL      0.417845
    175 H80         2.1390   -0.4490   -0.3230 ho        1 MOL      0.417845
    176 O26         4.0110    1.2840    2.3640 oh        1 MOL     -0.852560
    177 H81         4.4840    2.0140    2.7620 ho        1 MOL      0.417845
    178 H82         3.1450    1.3180    2.7710 ho        1 MOL      0.417845
    179 O27         7.0160    1.4520    1.3700 oh        1 MOL     -0.852560
    180 H83         7.6330    2.0890    1.7310 ho        1 MOL      0.417845
    181 H84         7.3120    0.6100    1.6970 ho        1 MOL      0.417845
@<TRIPOS>BOND
     1    1    2 1   
     2    1    4 1   
     3    1    5 1   
     4    1    6 1   
     5    2    3 2   
     6    2    7 1   
     7    7    8 1   
     8    7   15 1   
     9    8    9 1   
    10    8   11 1   
    11    8   16 1   
    12    9   10 2   
    13    9   19 1   
    14   11   12 1   
    15   11   17 1   
    16   11   18 1   
    17   12   13 1   
    18   12   14 1   
    19   19   20 1   
    20   19   24 1   
    21   20   21 1   
    22   20   23 1   
    23   20   25 1   
    24   21   22 2   
    25   21   29 1   
    26   23   26 1   
    27   23   27 1   
    28   23   28 1   
    29   29   30 1   
    30   29   37 1   
    31   30   31 1   
    32   30   33 1   
    33   30   38 1   
    34   31   32 2   
    35   31   41 1   
    36   33   34 1   
    37   33   39 1   
    38   33   40 1   
    39   34   35 1   
    40   34   36 1   
    41   41   42 1   
    42   41   45 1   
    43   42   43 1   
    44   42   46 1   
    45   42   47 1   
    46   43   44 2   
    47   43   48 1   
    48   48   49 1   
    49   48   56 1   
    50   49   50 1   
    51   49   52 1   
    52   49   57 1   
    53   50   51 2   
    54   50   62 1   
    55   52   53 1   
    56   52   58 1   
    57   52   59 1   
    58   53   54 1   
    59   53   55 2   
    60   54   60 1   
    61   54   61 1   
    62   62   63 1   
    63   62   66 1   
    64   63   64 1   
    65   63   67 1   
    66   63   68 1   
    67   64   65 2   
    68   64   69 1   
    69   69   70 1   
    70   69   76 1   
    71   70   71 1   
    72   70   73 1   
    73   70   77 1   
    74   71   72 2   
    75   71   83 1   
    76   73   74 1   
    77   73   75 1   
    78   73   78 1   
    79   74   80 1   
    80   74   81 1   
    81   74   82 1   
    82   75   79 1   
    83   83   84 1   
    84   83   91 1   
    85   84   85 1   
    86   84   87 1   
    87   84   92 1   
    88   85   86 2   
    89   85  102 1   
    90   87   88 1   
    91   87   89 1   
    92   87   93 1   
    93   88   90 1   
    94   88   94 1   
    95   88   95 1   
    96   89   96 1   
    97   89   97 1   
    98   89   98 1   
    99   90   99 1   
   100   90  100 1   
   101   90  101 1   
   102  102  103 1   
   103  102  110 1   
   104  103  104 1   
   105  103  106 1   
   106  103  111 1   
   107  104  105 2   
   108  104  114 1   
   109  106  107 1   
   110  106  112 1   
   111  106  113 1   
   112  107  108 1   
   113  107  109 1   
   114  114  115 1   
   115  114  125 1   
   116  115  116 1   
   117  115  118 1   
   118  115  126 1   
   119  116  117 2   
   120  116  134 1   
   121  118  119 1   
   122  118  127 1   
   123  118  128 1   
   124  119  120 ar  
   125  119  121 ar  
   126  120  122 ar  
   127  120  129 1   
   128  121  123 ar  
   129  121  130 1   
   130  122  124 ar  
   131  122  131 1   
   132  123  124 ar  
   133  123  132 1   
   134  124  133 1   
   135  134  135 1   
   136  134  140 1   
   137  135  136 1   
   138  135  138 1   
   139  135  141 1   
   140  136  137 2   
   141  136  148 1   
   142  138  139 1   
   143  138  142 1   
   144  138  143 1   
   145  139  140 1   
   146  139  144 1   
   147  139  145 1   
   148  140  146 1   
   149  140  147 1   
   150  148  149 1   
   151  148  157 1   
   152  149  150 1   
   153  149  152 1   
   154  149  158 1   
   155  150  151 2   
   156  150  163 1   
   157  152  153 1   
   158  152  159 1   
   159  152  160 1   
   160  153  154 1   
   161  153  161 1   
   162  153  162 1   
   163  154  155 1   
   164  154  156 1   
   165  163  164 1   
   166  163  168 1   
   167  164  165 1   
   168  164  166 1   
   169  164  167 1   
   170  170  171 1   
   171  170  172 1   
   172  173  174 1   
   173  173  175 1   
   174  176  177 1   
   175  176  178 1   
   176  179  180 1   
   177  179  181 1   
@<TRIPOS>SUBSTRUCTURE
     1 MOL         1 TEMP              0 ****  ****    0 ROOT
