@<TRIPOS>MOLECULE
MOL
  184   179     1     0     0
SMALL
resp


@<TRIPOS>ATOM
      1 C1          1.6870   -4.0440    4.0900 c3        1 MOL     -0.231286
      2 C2          3.1800   -3.6220    3.8350 c         1 MOL      0.644101
      3 O1          3.4460   -2.4680    3.4900 o         1 MOL     -0.531106
      4 H1          1.6050   -5.1300    4.0470 hc        1 MOL      0.050440
      5 H2          1.3730   -3.6960    5.0750 hc        1 MOL      0.050440
      6 H3          1.0480   -3.6010    3.3270 hc        1 MOL      0.050440
      7 N1          4.1580   -4.5720    3.9450 n         1 MOL     -0.713972
      8 C3          5.4440   -4.3600    3.1970 c3        1 MOL      0.378756
      9 C4          5.2680   -4.3290    1.6560 c         1 MOL      0.469077
     10 O2          4.2650   -4.8120    1.1800 o         1 MOL     -0.503273
     11 C5          6.4330   -5.4020    3.6130 c3        1 MOL     -0.207947
     12 C6          7.8930   -4.9090    3.3830 c         1 MOL      0.692633
     13 O3          8.8320   -5.7460    3.2900 o         1 MOL     -0.713749
     14 O4          8.0640   -3.6700    3.3260 o         1 MOL     -0.713749
     15 H4          3.9390   -5.4380    4.4190 hn        1 MOL      0.340025
     16 H5          5.8400   -3.3640    3.3700 h1        1 MOL      0.001586
     17 H6          6.3910   -6.3310    3.0410 hc        1 MOL      0.006281
     18 H7          6.2530   -5.6550    4.6620 hc        1 MOL      0.006281
     19 N2          6.1800   -3.6970    0.8750 n         1 MOL     -0.545146
     20 C7          6.1240   -3.5250   -0.5800 c3        1 MOL      0.435910
     21 C8          5.1630   -2.3170   -0.9040 c         1 MOL      0.195412
     22 O5          4.6230   -1.7000    0.0280 o         1 MOL     -0.407800
     23 C9          7.5350   -3.4650   -1.1860 c3        1 MOL     -0.333806
     24 H8          6.9700   -3.2730    1.3450 hn        1 MOL      0.291936
     25 H9          5.6290   -4.3890   -1.0380 h1        1 MOL     -0.031687
     26 H10         8.2610   -2.8420   -0.6660 hc        1 MOL      0.078825
     27 H11         8.0140   -4.4320   -1.0560 hc        1 MOL      0.078825
     28 H12         7.5800   -3.2030   -2.2460 hc        1 MOL      0.078825
     29 N3          4.9600   -2.1030   -2.1950 n         1 MOL     -0.205166
     30 C10         4.0640   -1.0540   -2.6680 c3        1 MOL     -0.305798
     31 C11         4.6490    0.2750   -3.0560 c         1 MOL      0.584857
     32 O6          3.9180    1.1840   -3.4430 o         1 MOL     -0.498697
     33 C12         3.3020   -1.5660   -3.9080 c3        1 MOL     -0.384984
     34 C13         2.8760   -3.0650   -3.7490 c         1 MOL      0.726506
     35 O7          1.9670   -3.3530   -2.9220 o         1 MOL     -0.683081
     36 O8          3.2510   -3.9230   -4.5750 o         1 MOL     -0.683081
     37 H13         5.3780   -2.7730   -2.8200 hn        1 MOL      0.240863
     38 H14         3.3130   -0.8880   -1.8940 h1        1 MOL      0.214279
     39 H15         3.8630   -1.4540   -4.8380 hc        1 MOL      0.115157
     40 H16         2.4200   -0.9250   -3.9560 hc        1 MOL      0.115157
     41 N4          5.9760    0.2940   -3.0040 n         1 MOL     -0.269741
     42 C14         6.8840    1.4030   -3.3880 c3        1 MOL     -0.223124
     43 C15         6.7510    2.8290   -2.9010 c         1 MOL      0.817936
     44 O9          7.8320    3.4710   -2.7550 o         1 MOL     -0.616259
     45 H17         6.4300   -0.4710   -2.5240 hn        1 MOL      0.260814
     46 H18         6.9180    1.4460   -4.4650 h1        1 MOL      0.091580
     47 H19         7.8860    1.0980   -3.0720 h1        1 MOL      0.091580
     48 N5          5.5200    3.3640   -2.5830 n         1 MOL     -0.722654
     49 C16         5.2370    4.6990   -2.0810 c3        1 MOL      0.449917
     50 C17         4.3100    4.8260   -0.8910 c         1 MOL      0.393279
     51 O10         3.4710    3.8920   -0.6820 o         1 MOL     -0.427062
     52 C18         4.7210    5.6780   -3.1050 c3        1 MOL     -0.335219
     53 C19         5.6660    5.8450   -4.2630 c         1 MOL      0.528674
     54 N6          6.7760    6.4920   -4.1080 n         1 MOL     -0.608819
     55 O11         5.4850    5.2690   -5.3390 o         1 MOL     -0.530976
     56 H20         4.7300    2.8150   -2.8900 hn        1 MOL      0.328044
     57 H21         6.1610    5.1650   -1.7240 h1        1 MOL     -0.058671
     58 H22         4.5330    6.6250   -2.5890 hc        1 MOL      0.099828
     59 H23         3.7630    5.2930   -3.4640 hc        1 MOL      0.099828
     60 H24         6.8310    7.0190   -3.2470 hn        1 MOL      0.313852
     61 H25         7.2960    6.7250   -4.9460 hn        1 MOL      0.313852
     62 N7          4.3600    5.8930   -0.0670 n         1 MOL     -0.399851
     63 C20         3.5200    5.9340    1.1510 c3        1 MOL     -0.243225
     64 C21         2.0720    6.3710    0.9550 c         1 MOL      0.594634
     65 O12         1.6010    6.5720   -0.1960 o         1 MOL     -0.454270
     66 H26         5.1400    6.5330   -0.1900 hn        1 MOL      0.289147
     67 H27         3.9140    6.6700    1.8600 h1        1 MOL      0.133071
     68 H28         3.5030    4.9530    1.6260 h1        1 MOL      0.133071
     69 N8          1.3880    6.5470    2.1610 n         1 MOL     -0.495966
     70 C22        -0.0170    6.9640    2.1690 c3        1 MOL     -0.214839
     71 C23        -0.9890    5.8140    2.4080 c         1 MOL      0.729416
     72 O13        -2.1250    5.8280    1.9130 o         1 MOL     -0.597697
     73 C24        -0.3290    8.0250    3.2490 c3        1 MOL      0.488246
     74 C25        -0.0620    7.5160    4.7020 c3        1 MOL     -0.460668
     75 O14         0.5790    9.1260    2.9770 oh        1 MOL     -0.649131
     76 H29         1.9280    6.4860    3.0140 hn        1 MOL      0.268565
     77 H30        -0.2180    7.3950    1.1860 h1        1 MOL      0.122421
     78 H31        -1.3580    8.3810    3.2100 h1        1 MOL      0.024383
     79 H32         1.4640    8.8770    3.2300 ho        1 MOL      0.382372
     80 H33        -0.8040    6.7300    4.8300 hc        1 MOL      0.109578
     81 H34         0.9430    7.1220    4.7490 hc        1 MOL      0.109578
     82 H35        -0.2860    8.4280    5.2670 hc        1 MOL      0.109578
     83 N9         -0.4680    4.7770    3.1140 n         1 MOL     -0.408841
     84 C26        -1.1810    3.4920    3.2340 c3        1 MOL     -0.437786
     85 C27        -0.7900    2.5310    2.1250 c         1 MOL      0.910088
     86 O15         0.3340    2.4340    1.6830 o         1 MOL     -0.538008
     87 C28        -0.8780    2.8120    4.6060 c3        1 MOL      0.108399
     88 C29        -1.1970    3.7130    5.7940 c3        1 MOL      0.074543
     89 C30        -1.6830    1.5560    4.9060 c3        1 MOL     -0.109991
     90 C31        -2.6230    4.2350    5.9330 c3        1 MOL     -0.312984
     91 H36         0.4560    4.8180    3.5280 hn        1 MOL      0.280293
     92 H37        -2.2420    3.7390    3.2360 h1        1 MOL      0.167679
     93 H38         0.1670    2.5090    4.6430 hc        1 MOL      0.037390
     94 H39        -0.5890    4.6150    5.7770 hc        1 MOL     -0.000482
     95 H40        -0.8500    3.2760    6.7360 hc        1 MOL     -0.000482
     96 H41        -2.7290    1.8260    4.7700 hc        1 MOL      0.034382
     97 H42        -1.4300    0.6820    4.3250 hc        1 MOL      0.034382
     98 H43        -1.5140    1.3450    5.9610 hc        1 MOL      0.034382
     99 H44        -2.8430    4.8800    5.0820 hc        1 MOL      0.077094
    100 H45        -3.3390    3.4630    6.2040 hc        1 MOL      0.077094
    101 H46        -2.6430    4.8820    6.8120 hc        1 MOL      0.077094
    102 N10        -1.7990    1.8890    1.5970 n         1 MOL     -0.661792
    103 C32        -1.7660    0.8530    0.6360 c3        1 MOL      0.007690
    104 C33        -2.9760    0.7040   -0.2940 c         1 MOL      0.458965
    105 O16        -2.9990   -0.0920   -1.2260 o         1 MOL     -0.579395
    106 C34        -1.6310   -0.5170    1.4130 c3        1 MOL      0.150298
    107 C35        -0.6840   -1.4640    0.7330 c         1 MOL      0.761096
    108 O17        -0.9520   -2.6740    0.7310 o         1 MOL     -0.750614
    109 O18         0.3910   -1.0470    0.3840 o         1 MOL     -0.750614
    110 H47        -2.6380    1.9890    2.1470 hn        1 MOL      0.316249
    111 H48        -0.8180    0.9790    0.0990 h1        1 MOL      0.142990
    112 H49        -2.6000   -1.0090    1.4940 hc        1 MOL     -0.047197
    113 H50        -1.3190   -0.2820    2.4290 hc        1 MOL     -0.047197
    114 N11        -4.0510    1.3350   -0.0110 n         1 MOL     -0.264656
    115 C36        -5.2210    1.4020   -0.9280 c3        1 MOL      0.271402
    116 C37        -6.2240    0.2700   -0.7490 c         1 MOL      0.388746
    117 O19        -6.5350   -0.1330    0.4040 o         1 MOL     -0.553872
    118 C38        -6.0350    2.7540   -0.6900 c3        1 MOL     -0.403700
    119 C39        -7.1640    3.0700   -1.6800 ca        1 MOL      0.189822
    120 C40        -6.8240    3.8520   -2.8190 ca        1 MOL     -0.198477
    121 C41        -8.4330    2.5870   -1.4710 ca        1 MOL     -0.198477
    122 C42        -7.7760    4.0660   -3.7770 ca        1 MOL     -0.077051
    123 C43        -9.4130    2.8350   -2.4130 ca        1 MOL     -0.077051
    124 C44        -9.0900    3.6150   -3.5520 ca        1 MOL     -0.168792
    125 H51        -4.0860    1.9300    0.8070 hn        1 MOL      0.198253
    126 H52        -4.8020    1.4870   -1.9230 h1        1 MOL      0.014078
    127 H53        -5.3040    3.5730   -0.7030 hc        1 MOL      0.124337
    128 H54        -6.4650    2.6170    0.2990 hc        1 MOL      0.124337
    129 H55        -5.8340    4.1990   -3.0560 ha        1 MOL      0.137228
    130 H56        -8.5970    1.9780   -0.5900 ha        1 MOL      0.137228
    131 H57        -7.4280    4.4940   -4.7060 ha        1 MOL      0.106869
    132 H58       -10.4110    2.4240   -2.3420 ha        1 MOL      0.106869
    133 H59        -9.7280    3.7120   -4.4150 ha        1 MOL      0.108915
    134 N12        -6.7770   -0.3570   -1.8730 n         1 MOL      0.006502
    135 C45        -7.8690   -1.3370   -1.9480 c3        1 MOL     -0.288531
    136 C46        -7.8050   -2.6610   -1.1240 c         1 MOL      0.649541
    137 O20        -8.8200   -3.2860   -1.0130 o         1 MOL     -0.542966
    138 C47        -7.9540   -1.5920   -3.4540 c3        1 MOL      0.134089
    139 C48        -6.5890   -1.4110   -4.0210 c3        1 MOL     -0.043721
    140 C49        -5.9860   -0.3360   -3.1160 c3        1 MOL     -0.080084
    141 H60        -8.7600   -0.7740   -1.6660 h1        1 MOL      0.122957
    142 H61        -8.5130   -2.4590   -3.8100 hc        1 MOL     -0.018353
    143 H62        -8.4750   -0.7290   -3.8730 hc        1 MOL     -0.018353
    144 H63        -6.0710   -2.3650   -3.9490 hc        1 MOL      0.038370
    145 H64        -6.5050   -1.1360   -5.0780 hc        1 MOL      0.038370
    146 H65        -4.9400   -0.6450   -3.0660 h1        1 MOL      0.057805
    147 H66        -6.0920    0.6510   -3.5810 h1        1 MOL      0.057805
    148 N13        -6.6880   -2.9650   -0.3910 n         1 MOL     -0.457372
    149 C50        -6.5910   -4.1540    0.4430 c3        1 MOL     -0.104897
    150 C51        -6.5720   -3.7650    1.9480 c         1 MOL      0.597472
    151 O21        -6.8950   -4.6090    2.7290 o         1 MOL     -0.526362
    152 C52        -5.3500   -4.9200    0.0480 c3        1 MOL      0.074663
    153 C53        -4.0430   -4.2350    0.4080 c3        1 MOL     -0.274963
    154 C54        -2.9240   -5.0840   -0.1850 c         1 MOL      0.714551
    155 O22        -2.2720   -4.7460   -1.2000 o         1 MOL     -0.709594
    156 O23        -2.6150   -6.1140    0.4670 o         1 MOL     -0.709594
    157 H67        -5.8260   -2.4540   -0.4890 hn        1 MOL      0.273465
    158 H68        -7.4590   -4.8210    0.3900 h1        1 MOL      0.094144
    159 H69        -5.3490   -5.0980   -1.0370 hc        1 MOL      0.016833
    160 H70        -5.2730   -5.8670    0.5780 hc        1 MOL      0.016833
    161 H71        -4.0100   -4.2240    1.4970 hc        1 MOL      0.081434
    162 H72        -4.1150   -3.2100    0.0420 hc        1 MOL      0.081434
    163 N14        -6.2700   -2.4350    2.2700 n         1 MOL     -0.366942
    164 C55        -6.0400   -2.0060    3.6190 c3        1 MOL     -0.155437
    165 H73        -5.9590   -0.9190    3.6450 h1        1 MOL      0.072421
    166 H74        -6.8710   -2.3230    4.2480 h1        1 MOL      0.072421
    167 H75        -5.1140   -2.4470    3.9880 h1        1 MOL      0.072421
    168 H76        -6.1030   -1.7650    1.5390 hn        1 MOL      0.277724
    169 Ca1         0.3090   -4.0340   -1.0750 Ca        1 MOL      1.772916
    170 O24        -1.2770   -1.9390   -2.3410 oh        1 MOL     -0.874630
    171 H77        -0.7940   -1.4480   -3.0120 ho        1 MOL      0.414806
    172 H78        -1.8480   -1.2880   -1.9390 ho        1 MOL      0.414806
    173 O25         0.1080   -6.1620    0.6210 oh        1 MOL     -0.874630
    174 H79         0.4470   -6.5740    1.4200 ho        1 MOL      0.414806
    175 H80        -0.8370   -6.2410    0.7000 ho        1 MOL      0.414806
    176 O26        -0.0970   -5.8460   -2.9750 oh        1 MOL     -0.874630
    177 H81         0.3940   -6.2850   -3.6740 ho        1 MOL      0.414806
    178 H82        -0.8610   -6.3950   -2.8300 ho        1 MOL      0.414806
    179 O27         2.0950   -2.9040    0.5440 oh        1 MOL     -0.874630
    180 H83         2.8860   -2.6570    1.0300 ho        1 MOL      0.414806
    181 H84         1.5800   -2.0970    0.5010 ho        1 MOL      0.414806
    182 O28         2.7380   -5.3600   -0.8650 oh        1 MOL     -0.874630
    183 H85         3.3700   -5.9850   -1.2360 ho        1 MOL      0.414806
    184 H86         3.2390   -4.8820   -0.2110 ho        1 MOL      0.414806
@<TRIPOS>BOND
     1    1    2 1   
     2    1    4 1   
     3    1    5 1   
     4    1    6 1   
     5    2    3 2   
     6    2    7 1   
     7    7    8 1   
     8    7   15 1   
     9    8    9 1   
    10    8   11 1   
    11    8   16 1   
    12    9   10 2   
    13    9   19 1   
    14   11   12 1   
    15   11   17 1   
    16   11   18 1   
    17   12   13 1   
    18   12   14 1   
    19   19   20 1   
    20   19   24 1   
    21   20   21 1   
    22   20   23 1   
    23   20   25 1   
    24   21   22 2   
    25   21   29 1   
    26   23   26 1   
    27   23   27 1   
    28   23   28 1   
    29   29   30 1   
    30   29   37 1   
    31   30   31 1   
    32   30   33 1   
    33   30   38 1   
    34   31   32 2   
    35   31   41 1   
    36   33   34 1   
    37   33   39 1   
    38   33   40 1   
    39   34   35 1   
    40   34   36 1   
    41   41   42 1   
    42   41   45 1   
    43   42   43 1   
    44   42   46 1   
    45   42   47 1   
    46   43   44 2   
    47   43   48 1   
    48   48   49 1   
    49   48   56 1   
    50   49   50 1   
    51   49   52 1   
    52   49   57 1   
    53   50   51 2   
    54   50   62 1   
    55   52   53 1   
    56   52   58 1   
    57   52   59 1   
    58   53   54 1   
    59   53   55 2   
    60   54   60 1   
    61   54   61 1   
    62   62   63 1   
    63   62   66 1   
    64   63   64 1   
    65   63   67 1   
    66   63   68 1   
    67   64   65 2   
    68   64   69 1   
    69   69   70 1   
    70   69   76 1   
    71   70   71 1   
    72   70   73 1   
    73   70   77 1   
    74   71   72 2   
    75   71   83 1   
    76   73   74 1   
    77   73   75 1   
    78   73   78 1   
    79   74   80 1   
    80   74   81 1   
    81   74   82 1   
    82   75   79 1   
    83   83   84 1   
    84   83   91 1   
    85   84   85 1   
    86   84   87 1   
    87   84   92 1   
    88   85   86 2   
    89   85  102 1   
    90   87   88 1   
    91   87   89 1   
    92   87   93 1   
    93   88   90 1   
    94   88   94 1   
    95   88   95 1   
    96   89   96 1   
    97   89   97 1   
    98   89   98 1   
    99   90   99 1   
   100   90  100 1   
   101   90  101 1   
   102  102  103 1   
   103  102  110 1   
   104  103  104 1   
   105  103  106 1   
   106  103  111 1   
   107  104  105 2   
   108  104  114 1   
   109  106  107 1   
   110  106  112 1   
   111  106  113 1   
   112  107  108 1   
   113  107  109 1   
   114  114  115 1   
   115  114  125 1   
   116  115  116 1   
   117  115  118 1   
   118  115  126 1   
   119  116  117 2   
   120  116  134 1   
   121  118  119 1   
   122  118  127 1   
   123  118  128 1   
   124  119  120 ar  
   125  119  121 ar  
   126  120  122 ar  
   127  120  129 1   
   128  121  123 ar  
   129  121  130 1   
   130  122  124 ar  
   131  122  131 1   
   132  123  124 ar  
   133  123  132 1   
   134  124  133 1   
   135  134  135 1   
   136  134  140 1   
   137  135  136 1   
   138  135  138 1   
   139  135  141 1   
   140  136  137 2   
   141  136  148 1   
   142  138  139 1   
   143  138  142 1   
   144  138  143 1   
   145  139  140 1   
   146  139  144 1   
   147  139  145 1   
   148  140  146 1   
   149  140  147 1   
   150  148  149 1   
   151  148  157 1   
   152  149  150 1   
   153  149  152 1   
   154  149  158 1   
   155  150  151 2   
   156  150  163 1   
   157  152  153 1   
   158  152  159 1   
   159  152  160 1   
   160  153  154 1   
   161  153  161 1   
   162  153  162 1   
   163  154  155 1   
   164  154  156 1   
   165  163  164 1   
   166  163  168 1   
   167  164  165 1   
   168  164  166 1   
   169  164  167 1   
   170  170  171 1   
   171  170  172 1   
   172  173  174 1   
   173  173  175 1   
   174  176  177 1   
   175  176  178 1   
   176  179  180 1   
   177  179  181 1   
   178  182  183 1   
   179  182  184 1   
@<TRIPOS>SUBSTRUCTURE
     1 MOL         1 TEMP              0 ****  ****    0 ROOT
