@<TRIPOS>MOLECULE
MOL
  195   189     1     0     0
SMALL
resp


@<TRIPOS>ATOM
      1 C1        -10.1600   -6.5270   -2.9310 c3        1 MOL     -0.530474
      2 C2        -10.0700   -5.0430   -2.4740 c         1 MOL      0.670989
      3 O1        -10.6480   -4.1570   -3.1780 o         1 MOL     -0.583766
      4 H1        -11.0270   -6.6550   -3.5790 hc        1 MOL      0.150528
      5 H2         -9.2560   -6.7940   -3.4780 hc        1 MOL      0.150528
      6 H3        -10.2600   -7.1710   -2.0580 hc        1 MOL      0.150528
      7 N1         -9.5320   -4.7360   -1.2560 n         1 MOL     -0.203349
      8 C3         -9.6730   -3.4660   -0.5730 c3        1 MOL     -0.272439
      9 C4         -8.4700   -2.5270   -0.8560 c         1 MOL      0.350741
     10 O2         -7.3540   -2.9860   -0.9810 o         1 MOL     -0.506190
     11 C5         -9.7400   -3.7070    0.9490 c3        1 MOL      0.032232
     12 C6         -8.8190   -4.7160    1.6020 c         1 MOL      0.832131
     13 O3         -9.2740   -5.2610    2.5950 o         1 MOL     -0.716213
     14 O4         -7.7530   -5.0370    1.0350 o         1 MOL     -0.716213
     15 H4         -8.9890   -5.4110   -0.7440 hn        1 MOL      0.070041
     16 H5        -10.5350   -2.9530   -1.0150 h1        1 MOL      0.126989
     17 H6        -10.7360   -4.1250    1.0630 hc        1 MOL      0.019747
     18 H7         -9.8050   -2.7500    1.4580 hc        1 MOL      0.019747
     19 N2         -8.6740   -1.1950   -1.0000 n         1 MOL     -0.265817
     20 C7         -7.5780   -0.2160   -1.2720 c3        1 MOL      0.026863
     21 C8         -7.0340    0.3110    0.0260 c         1 MOL      0.487661
     22 O5         -7.0910    1.5470    0.3160 o         1 MOL     -0.515242
     23 C9         -8.0960    0.7850   -2.3450 c3        1 MOL     -0.165208
     24 C10        -9.3170    1.5400   -1.9900 c3        1 MOL      0.044133
     25 C11        -9.4050    2.8250   -2.8430 c3        1 MOL     -0.033637
     26 C12       -10.7070    3.5770   -3.0490 c3        1 MOL      0.213905
     27 N3        -10.4690    4.9070   -3.5420 n4        1 MOL     -0.427995
     28 H8         -9.5420   -0.8010   -0.6660 hn        1 MOL      0.263772
     29 H9         -6.7200   -0.7390   -1.6810 h1        1 MOL      0.082774
     30 H10        -8.2780    0.3100   -3.3130 hc        1 MOL      0.061926
     31 H11        -7.3110    1.5040   -2.5690 hc        1 MOL      0.061926
     32 H12        -9.3050    1.8080   -0.9320 hc        1 MOL      0.013262
     33 H13       -10.1390    0.8630   -2.2420 hc        1 MOL      0.013262
     34 H14        -9.0010    2.6160   -3.8380 hc        1 MOL      0.019890
     35 H15        -8.8180    3.6110   -2.3840 hc        1 MOL      0.019890
     36 H16       -11.2770    3.5710   -2.1230 hx        1 MOL      0.032206
     37 H17       -11.3710    3.0060   -3.6980 hx        1 MOL      0.032206
     38 H18       -11.2730    5.5160   -3.6130 hn        1 MOL      0.343368
     39 H19        -9.7610    5.3070   -2.9430 hn        1 MOL      0.343368
     40 H20       -10.1010    4.9190   -4.4800 hn        1 MOL      0.343368
     41 N4         -6.4450   -0.5730    0.8170 n         1 MOL     -0.347018
     42 C13        -5.6440   -0.1170    1.9740 c3        1 MOL     -0.006531
     43 C14        -4.1670    0.1080    1.4640 c         1 MOL      0.466769
     44 O6         -3.6890   -0.4870    0.4870 o         1 MOL     -0.446855
     45 C15        -5.7410   -1.1110    3.1410 c3        1 MOL     -0.029340
     46 C16        -5.4980   -2.5590    2.7140 c         1 MOL      0.643453
     47 O7         -5.3310   -3.3790    3.6300 o         1 MOL     -0.696482
     48 O8         -5.2570   -2.9030    1.5360 o         1 MOL     -0.696482
     49 H21        -6.3280   -1.5210    0.4990 hn        1 MOL      0.166572
     50 H22        -6.0700    0.7940    2.3790 h1        1 MOL      0.101563
     51 H23        -6.6990   -1.0280    3.6470 hc        1 MOL      0.058060
     52 H24        -4.9300   -0.8470    3.8240 hc        1 MOL      0.058060
     53 N5         -3.3280    0.9070    2.1970 n         1 MOL     -0.414432
     54 C17        -3.8710    2.0330    3.0690 c3        1 MOL     -0.021523
     55 C18        -3.8460    3.4640    2.4610 c         1 MOL      0.488295
     56 O9         -4.0420    3.4840    1.2260 o         1 MOL     -0.508951
     57 H25        -2.3410    0.8770    2.0190 hn        1 MOL      0.305009
     58 H26        -3.2630    1.9960    3.9680 h1        1 MOL      0.067532
     59 H27        -4.8070    1.7680    3.5450 h1        1 MOL      0.067532
     60 N6         -3.6630    4.5230    3.2510 n         1 MOL     -0.332172
     61 C19        -3.8650    5.8450    2.7110 c3        1 MOL     -0.039110
     62 C20        -2.8220    6.3040    1.6980 c         1 MOL      0.398472
     63 O10        -3.1380    7.2010    0.9760 o         1 MOL     -0.499303
     64 C21        -4.0380    6.9050    3.8500 c3        1 MOL     -0.104947
     65 C22        -5.1140    6.5680    4.9450 c         1 MOL      0.690943
     66 O11        -4.7590    5.8340    5.8820 o         1 MOL     -0.694165
     67 O12        -6.2010    7.2120    4.8050 o         1 MOL     -0.694165
     68 H28        -3.6490    4.4020    4.2560 hn        1 MOL      0.238238
     69 H29        -4.7880    5.7520    2.1290 h1        1 MOL      0.102470
     70 H30        -4.3820    7.8380    3.4060 hc        1 MOL      0.022861
     71 H31        -3.0480    6.8980    4.3050 hc        1 MOL      0.022861
     72 N7         -1.6310    5.7160    1.6340 n         1 MOL     -0.256403
     73 C23        -0.6200    5.9420    0.5090 c3        1 MOL     -0.128936
     74 C24        -0.6340    4.8250   -0.4940 c         1 MOL      0.533333
     75 O13         0.1180    4.8370   -1.4980 o         1 MOL     -0.612034
     76 H32        -1.4540    5.0690    2.3860 hn        1 MOL      0.217235
     77 H33         0.3840    6.0170    0.9390 h1        1 MOL      0.107456
     78 H34        -0.8460    6.8500   -0.0430 h1        1 MOL      0.107456
     79 N8         -1.4320    3.8110   -0.3140 n         1 MOL     -0.172898
     80 C25        -1.3390    2.5080   -1.0100 c3        1 MOL     -0.113267
     81 C26        -0.4890    1.5530   -0.2940 c         1 MOL      0.341113
     82 O14        -0.6120    1.3950    0.9320 o         1 MOL     -0.494995
     83 C27        -2.7490    1.9950   -1.2750 c3        1 MOL      0.641295
     84 C28        -3.4360    2.8800   -2.2970 c3        1 MOL     -0.278194
     85 O15        -2.6880    0.6570   -1.7100 oh        1 MOL     -0.689413
     86 H35        -1.9850    3.7800    0.5300 hn        1 MOL      0.130096
     87 H36        -0.9250    2.6440   -2.0080 h1        1 MOL      0.091837
     88 H37        -3.3960    2.0140   -0.3970 h1        1 MOL     -0.029919
     89 H38        -3.1080    0.1730   -0.9910 ho        1 MOL      0.284611
     90 H39        -3.6360    3.8210   -1.7820 hc        1 MOL      0.044480
     91 H40        -2.7560    3.1190   -3.1080 hc        1 MOL      0.044480
     92 H41        -4.3370    2.4090   -2.7100 hc        1 MOL      0.044480
     93 N9          0.3630    0.8020   -1.0420 n         1 MOL     -0.280155
     94 C29         1.3350   -0.1730   -0.4880 c3        1 MOL     -0.000237
     95 C30         2.7390    0.3110   -0.4790 c         1 MOL      0.528537
     96 O16         3.4990   -0.1300    0.3990 o         1 MOL     -0.552838
     97 C31         1.2120   -1.5330   -1.1860 c3        1 MOL      0.017686
     98 C32         1.3550   -1.2750   -2.7540 c3        1 MOL      0.046569
     99 C33        -0.0890   -2.2660   -0.7910 c3        1 MOL     -0.121596
    100 C34         1.3960   -2.5410   -3.6770 c3        1 MOL     -0.282855
    101 H42         0.4060    0.9210   -2.0410 hn        1 MOL      0.238249
    102 H43         1.1900   -0.3510    0.5790 h1        1 MOL      0.103483
    103 H44         1.9680   -2.2590   -0.8610 hc        1 MOL      0.043667
    104 H45         2.3120   -0.7600   -2.8400 hc        1 MOL      0.018551
    105 H46         0.5140   -0.6680   -3.0950 hc        1 MOL      0.018551
    106 H47        -0.9720   -1.7520   -1.1720 hc        1 MOL      0.043736
    107 H48        -0.1330   -3.2950   -1.1800 hc        1 MOL      0.043736
    108 H49        -0.1520   -2.3680    0.2870 hc        1 MOL      0.043736
    109 H50         1.2540   -2.2960   -4.7310 hc        1 MOL      0.073959
    110 H51         2.3500   -3.0250   -3.4810 hc        1 MOL      0.073959
    111 H52         0.6300   -3.2610   -3.3700 hc        1 MOL      0.073959
    112 N10         3.1090    1.2590   -1.3580 n         1 MOL     -0.408657
    113 C35         4.3620    2.1150   -1.2980 c3        1 MOL     -0.063990
    114 C36         5.2630    1.8580   -2.4980 c         1 MOL      0.693165
    115 O17         4.8350    1.7850   -3.6010 o         1 MOL     -0.548887
    116 C37         4.0280    3.5470   -0.9870 c3        1 MOL      0.321247
    117 C38         3.3110    3.7180    0.3520 c3        1 MOL     -0.296215
    118 O18         5.2120    4.2550   -1.0840 oh        1 MOL     -0.653305
    119 H53         2.5380    1.5370   -2.1420 hn        1 MOL      0.221654
    120 H54         4.9230    1.7890   -0.4200 h1        1 MOL      0.124467
    121 H55         3.2520    3.9100   -1.6710 h1        1 MOL      0.010419
    122 H56         5.0090    5.1720   -0.9130 ho        1 MOL      0.417494
    123 H57         3.1530    4.7590    0.6080 hc        1 MOL      0.081638
    124 H58         2.3200    3.2640    0.3600 hc        1 MOL      0.081638
    125 H59         3.8230    3.1980    1.1610 hc        1 MOL      0.081638
    126 N11         6.5340    1.6520   -2.2000 n         1 MOL     -0.630437
    127 C39         7.6540    1.4490   -3.2100 c3        1 MOL      0.232406
    128 C40         8.5880    0.2780   -2.9860 c         1 MOL      0.504481
    129 O19         8.7060   -0.6100   -3.8140 o         1 MOL     -0.542665
    130 C41         8.5300    2.7700   -3.2140 c3        1 MOL      0.296402
    131 C42         9.8780    2.5800   -3.9540 c3        1 MOL     -0.405967
    132 O20         8.8320    3.0110   -1.8400 oh        1 MOL     -0.608902
    133 H60         6.8210    1.6310   -1.2230 hn        1 MOL      0.313078
    134 H61         7.2840    1.3480   -4.2280 h1        1 MOL      0.036789
    135 H62         7.9390    3.5610   -3.6760 h1        1 MOL      0.032067
    136 H63         9.4320    3.7300   -1.6480 ho        1 MOL      0.389447
    137 H64        10.3090    3.5730   -4.0930 hc        1 MOL      0.100767
    138 H65        10.5480    1.9220   -3.4120 hc        1 MOL      0.100767
    139 H66         9.6410    2.1660   -4.9380 hc        1 MOL      0.100767
    140 N12         9.2220    0.2160   -1.7920 n         1 MOL     -0.355742
    141 C43        10.2740   -0.7040   -1.3020 c3        1 MOL      0.130342
    142 C44         9.9950   -1.2530    0.0440 c         1 MOL      0.376017
    143 O21         9.4040   -0.6160    0.9230 o         1 MOL     -0.479975
    144 C45        11.6430   -0.0070   -1.2840 c3        1 MOL     -0.151393
    145 C46        11.7070    1.2560   -0.5230 c3        1 MOL      0.283356
    146 C47        13.1350    1.7430   -0.1620 c3        1 MOL     -0.242734
    147 C48        12.9890    3.1360    0.5630 c3        1 MOL      0.172166
    148 N13        14.0440    3.1540    1.6370 n4        1 MOL     -0.267950
    149 H67         8.8900    0.9270   -1.1610 hn        1 MOL      0.185959
    150 H68        10.4220   -1.4710   -2.0550 h1        1 MOL      0.074328
    151 H69        11.8920    0.2010   -2.3320 hc        1 MOL      0.037542
    152 H70        12.3430   -0.7380   -0.8700 hc        1 MOL      0.037542
    153 H71        11.1090    1.1140    0.3750 hc        1 MOL     -0.029440
    154 H72        11.1770    2.0290   -1.0750 hc        1 MOL     -0.029440
    155 H73        13.7290    1.7310   -1.0680 hc        1 MOL      0.065332
    156 H74        13.5410    0.9570    0.4840 hc        1 MOL      0.065332
    157 H75        11.9710    3.2340    0.9570 hx        1 MOL      0.031344
    158 H76        13.1500    3.9360   -0.1450 hx        1 MOL      0.031344
    159 H77        13.6770    2.5300    2.3390 hn        1 MOL      0.249327
    160 H78        14.9230    2.8290    1.2510 hn        1 MOL      0.249327
    161 H79        14.3040    4.0760    1.9470 hn        1 MOL      0.249327
    162 N14        10.5170   -2.4120    0.3690 n         1 MOL     -0.320288
    163 C49        10.4470   -3.0540    1.6330 c3        1 MOL      0.075311
    164 C50         8.9890   -3.1970    2.2170 c         1 MOL      0.347844
    165 O22         8.7670   -2.9240    3.3820 o         1 MOL     -0.506011
    166 C51        11.1080   -4.4530    1.5420 c3        1 MOL     -0.048324
    167 C52        11.1900   -5.1930    2.8160 c3        1 MOL     -0.148641
    168 C53        12.3370   -6.2320    2.9180 c         1 MOL      0.669457
    169 O23        13.1970   -6.0920    3.8260 o         1 MOL     -0.643452
    170 O24        12.4870   -7.0640    2.0150 o         1 MOL     -0.643452
    171 H80        11.0050   -2.9060   -0.3670 hn        1 MOL      0.212038
    172 H81        11.0470   -2.4030    2.2550 h1        1 MOL      0.085672
    173 H82        12.1240   -4.3860    1.1630 hc        1 MOL      0.040037
    174 H83        10.5830   -5.1440    0.8840 hc        1 MOL      0.040037
    175 H84        10.2080   -5.5730    3.1100 hc        1 MOL      0.024326
    176 H85        11.3370   -4.4580    3.6120 hc        1 MOL      0.024326
    177 N15         7.9440   -3.7040    1.5370 n         1 MOL     -0.234580
    178 C54         7.7970   -4.1510    0.1150 c3        1 MOL     -0.110799
    179 H86         7.0240   -4.9170    0.0530 h1        1 MOL      0.068417
    180 H87         7.5150   -3.3010   -0.5060 h1        1 MOL      0.068417
    181 H88         8.7440   -4.5600   -0.2370 h1        1 MOL      0.068417
    182 H89         7.1200   -3.7100    2.1160 hn        1 MOL      0.260114
    183 Ca1        -5.3940   -4.9250   -0.0400 Ca        1 MOL      1.773645
    184 O25        -2.9330   -4.3150    1.0550 oh        1 MOL     -0.893837
    185 H90        -2.7340   -4.7100    1.9070 ho        1 MOL      0.432307
    186 H91        -3.3290   -3.4680    1.2680 ho        1 MOL      0.432307
    187 O26        -4.2750   -2.4450   -1.0680 oh        1 MOL     -0.893837
    188 H92        -3.9530   -1.8080   -0.4360 ho        1 MOL      0.432307
    189 H93        -4.6610   -1.9110   -1.7590 ho        1 MOL      0.432307
    190 O27        -5.2210   -4.9020   -2.7850 oh        1 MOL     -0.893837
    191 H94        -5.4520   -5.4190   -3.5570 ho        1 MOL      0.432307
    192 H95        -5.1910   -3.9930   -3.1020 ho        1 MOL      0.432307
    193 O28        -4.9300   -5.7290    2.5800 oh        1 MOL     -0.893837
    194 H96        -5.2320   -5.0620    3.2070 ho        1 MOL      0.432307
    195 H97        -4.0840   -6.0130    2.9230 ho        1 MOL      0.432307
@<TRIPOS>BOND
     1    1    2 1   
     2    1    4 1   
     3    1    5 1   
     4    1    6 1   
     5    2    3 2   
     6    2    7 1   
     7    7    8 1   
     8    7   15 1   
     9    8    9 1   
    10    8   11 1   
    11    8   16 1   
    12    9   10 2   
    13    9   19 1   
    14   11   12 1   
    15   11   17 1   
    16   11   18 1   
    17   12   13 1   
    18   12   14 1   
    19   19   20 1   
    20   19   28 1   
    21   20   21 1   
    22   20   23 1   
    23   20   29 1   
    24   21   22 2   
    25   21   41 1   
    26   23   24 1   
    27   23   30 1   
    28   23   31 1   
    29   24   25 1   
    30   24   32 1   
    31   24   33 1   
    32   25   26 1   
    33   25   34 1   
    34   25   35 1   
    35   26   27 1   
    36   26   36 1   
    37   26   37 1   
    38   27   38 1   
    39   27   39 1   
    40   27   40 1   
    41   41   42 1   
    42   41   49 1   
    43   42   43 1   
    44   42   45 1   
    45   42   50 1   
    46   43   44 2   
    47   43   53 1   
    48   45   46 1   
    49   45   51 1   
    50   45   52 1   
    51   46   47 1   
    52   46   48 1   
    53   53   54 1   
    54   53   57 1   
    55   54   55 1   
    56   54   58 1   
    57   54   59 1   
    58   55   56 2   
    59   55   60 1   
    60   60   61 1   
    61   60   68 1   
    62   61   62 1   
    63   61   64 1   
    64   61   69 1   
    65   62   63 2   
    66   62   72 1   
    67   64   65 1   
    68   64   70 1   
    69   64   71 1   
    70   65   66 1   
    71   65   67 1   
    72   72   73 1   
    73   72   76 1   
    74   73   74 1   
    75   73   77 1   
    76   73   78 1   
    77   74   75 2   
    78   74   79 1   
    79   79   80 1   
    80   79   86 1   
    81   80   81 1   
    82   80   83 1   
    83   80   87 1   
    84   81   82 2   
    85   81   93 1   
    86   83   84 1   
    87   83   85 1   
    88   83   88 1   
    89   84   90 1   
    90   84   91 1   
    91   84   92 1   
    92   85   89 1   
    93   93   94 1   
    94   93  101 1   
    95   94   95 1   
    96   94   97 1   
    97   94  102 1   
    98   95   96 2   
    99   95  112 1   
   100   97   98 1   
   101   97   99 1   
   102   97  103 1   
   103   98  100 1   
   104   98  104 1   
   105   98  105 1   
   106   99  106 1   
   107   99  107 1   
   108   99  108 1   
   109  100  109 1   
   110  100  110 1   
   111  100  111 1   
   112  112  113 1   
   113  112  119 1   
   114  113  114 1   
   115  113  116 1   
   116  113  120 1   
   117  114  115 2   
   118  114  126 1   
   119  116  117 1   
   120  116  118 1   
   121  116  121 1   
   122  117  123 1   
   123  117  124 1   
   124  117  125 1   
   125  118  122 1   
   126  126  127 1   
   127  126  133 1   
   128  127  128 1   
   129  127  130 1   
   130  127  134 1   
   131  128  129 2   
   132  128  140 1   
   133  130  131 1   
   134  130  132 1   
   135  130  135 1   
   136  131  137 1   
   137  131  138 1   
   138  131  139 1   
   139  132  136 1   
   140  140  141 1   
   141  140  149 1   
   142  141  142 1   
   143  141  144 1   
   144  141  150 1   
   145  142  143 2   
   146  142  162 1   
   147  144  145 1   
   148  144  151 1   
   149  144  152 1   
   150  145  146 1   
   151  145  153 1   
   152  145  154 1   
   153  146  147 1   
   154  146  155 1   
   155  146  156 1   
   156  147  148 1   
   157  147  157 1   
   158  147  158 1   
   159  148  159 1   
   160  148  160 1   
   161  148  161 1   
   162  162  163 1   
   163  162  171 1   
   164  163  164 1   
   165  163  166 1   
   166  163  172 1   
   167  164  165 2   
   168  164  177 1   
   169  166  167 1   
   170  166  173 1   
   171  166  174 1   
   172  167  168 1   
   173  167  175 1   
   174  167  176 1   
   175  168  169 1   
   176  168  170 1   
   177  177  178 1   
   178  177  182 1   
   179  178  179 1   
   180  178  180 1   
   181  178  181 1   
   182  184  185 1   
   183  184  186 1   
   184  187  188 1   
   185  187  189 1   
   186  190  191 1   
   187  190  192 1   
   188  193  194 1   
   189  193  195 1   
@<TRIPOS>SUBSTRUCTURE
     1 MOL         1 TEMP              0 ****  ****    0 ROOT
