@<TRIPOS>MOLECULE
MOL
  182   178     1     0     0
SMALL
resp


@<TRIPOS>ATOM
      1 C1          0.2930   -3.6000    5.8920 c3        1 MOL     -0.405942
      2 C2          0.4610   -3.5110    4.3390 c         1 MOL      0.703863
      3 O1         -0.5710   -3.4040    3.6890 o         1 MOL     -0.564193
      4 H1         -0.1000   -4.5820    6.1590 hc        1 MOL      0.117244
      5 H2          1.2610   -3.4550    6.3720 hc        1 MOL      0.117244
      6 H3         -0.4000   -2.8290    6.2280 hc        1 MOL      0.117244
      7 N1          1.7170   -3.5250    3.8590 n         1 MOL     -0.562603
      8 C3          2.0670   -3.1870    2.5020 c3        1 MOL      0.074124
      9 C4          2.1960   -4.4060    1.5820 c         1 MOL      0.560705
     10 O2          2.5270   -5.5110    2.0810 o         1 MOL     -0.548678
     11 C5          3.3520   -2.3390    2.6230 c3        1 MOL     -0.278686
     12 C6          3.5080   -1.4530    1.4380 c         1 MOL      0.658792
     13 O3          3.7720   -0.2210    1.4540 o         1 MOL     -0.725492
     14 O4          3.2530   -1.9100    0.2910 o         1 MOL     -0.725492
     15 H4          2.4490   -3.7930    4.5040 hn        1 MOL      0.340557
     16 H5          1.2960   -2.5820    2.0250 h1        1 MOL     -0.042598
     17 H6          4.2160   -3.0000    2.6090 hc        1 MOL      0.112504
     18 H7          3.2950   -1.7340    3.5300 hc        1 MOL      0.112504
     19 N2          1.8350   -4.1900    0.3120 n         1 MOL     -0.303709
     20 C7          2.0430   -5.2380   -0.7250 c3        1 MOL     -0.076272
     21 C8          3.4030   -5.0250   -1.5200 c         1 MOL      0.645329
     22 O5          4.0460   -5.9450   -1.8590 o         1 MOL     -0.562529
     23 C9          0.7890   -5.4840   -1.6560 c3        1 MOL      0.046411
     24 C10        -0.3830   -6.3460   -1.1250 c3        1 MOL     -0.001330
     25 C11        -1.4280   -6.5230   -2.2040 c3        1 MOL      0.031421
     26 C12        -2.4660   -7.4990   -1.7190 c3        1 MOL     -0.022486
     27 N3         -3.5750   -7.6210   -2.6750 n4        1 MOL     -0.144235
     28 H8          1.4490   -3.3020    0.0090 hn        1 MOL      0.302595
     29 H9          2.3190   -6.2010   -0.2780 h1        1 MOL      0.088105
     30 H10         1.1400   -5.9810   -2.5660 hc        1 MOL     -0.012345
     31 H11         0.3710   -4.5480   -2.0150 hc        1 MOL     -0.012345
     32 H12        -0.8670   -5.8380   -0.2840 hc        1 MOL      0.019346
     33 H13        -0.0700   -7.3750   -0.9400 hc        1 MOL      0.019346
     34 H14        -0.9050   -7.0670   -2.9850 hc        1 MOL      0.021318
     35 H15        -1.8350   -5.6250   -2.6630 hc        1 MOL      0.021318
     36 H16        -2.9100   -7.1190   -0.8020 hx        1 MOL      0.089112
     37 H17        -1.9670   -8.4310   -1.4640 hx        1 MOL      0.089112
     38 H18        -3.9740   -6.7260   -2.9180 hn        1 MOL      0.220050
     39 H19        -3.3360   -7.9950   -3.5800 hn        1 MOL      0.220050
     40 H20        -4.3300   -8.1810   -2.3250 hn        1 MOL      0.220050
     41 N4          3.8770   -3.8020   -1.7480 n         1 MOL     -0.316263
     42 C13         5.1720   -3.6570   -2.4880 c3        1 MOL      0.112246
     43 C14         6.3500   -3.4300   -1.4250 c         1 MOL      0.418641
     44 O6          7.4460   -3.9160   -1.5650 o         1 MOL     -0.541127
     45 C15         5.0920   -2.4930   -3.4760 c3        1 MOL     -0.362512
     46 C16         4.3620   -1.3650   -2.8120 c         1 MOL      0.928337
     47 O7          4.9370   -0.6710   -1.9590 o         1 MOL     -0.767379
     48 O8          3.1870   -1.0750   -3.1900 o         1 MOL     -0.767379
     49 H21         3.4360   -3.0190   -1.2860 hn        1 MOL     -0.090424
     50 H22         5.4170   -4.5580   -3.0600 h1        1 MOL      0.107247
     51 H23         4.4510   -2.7360   -4.3190 hc        1 MOL      0.090901
     52 H24         6.0540   -2.2020   -3.8730 hc        1 MOL      0.090901
     53 N5          6.0740   -2.8220   -0.2280 n         1 MOL     -0.123154
     54 C17         7.0690   -2.5590    0.8250 c3        1 MOL     -0.160504
     55 C18         7.3440   -1.0750    0.9900 c         1 MOL      0.604877
     56 O9          7.7610   -0.7760    2.1410 o         1 MOL     -0.568744
     57 H25         5.1240   -2.4690   -0.1280 hn        1 MOL      0.187111
     58 H26         8.0840   -2.9440    0.6630 h1        1 MOL      0.103310
     59 H27         6.6600   -2.9340    1.7630 h1        1 MOL      0.103310
     60 N6          7.1050   -0.1770   -0.0010 n         1 MOL     -0.390807
     61 C19         7.4600    1.2970   -0.0240 c3        1 MOL      0.242128
     62 C20         6.2090    2.2190   -0.0710 c         1 MOL      0.516619
     63 O10         5.0930    1.7550   -0.4760 o         1 MOL     -0.451654
     64 C21         8.5440    1.4750   -1.1300 c3        1 MOL     -0.289086
     65 C22         9.8330    0.6680   -1.0790 c         1 MOL      0.580443
     66 N7         10.0330   -0.1350   -2.1060 n         1 MOL     -0.751434
     67 O11        10.5780    0.6100   -0.0500 o         1 MOL     -0.510760
     68 H28         6.6710   -0.5150   -0.8410 hn        1 MOL      0.248198
     69 H29         7.9600    1.5150    0.9210 h1        1 MOL      0.015138
     70 H30         8.7320    2.5480   -1.0500 hc        1 MOL      0.060076
     71 H31         7.9820    1.3090   -2.0460 hc        1 MOL      0.060076
     72 H32         9.3270   -0.2400   -2.8180 hn        1 MOL      0.374424
     73 H33        10.9480   -0.5530   -2.1720 hn        1 MOL      0.374424
     74 N8          6.4330    3.5690    0.1300 n         1 MOL     -0.550749
     75 C23         5.4960    4.6440   -0.3030 c3        1 MOL      0.049959
     76 C24         4.3200    4.7720    0.6860 c         1 MOL      0.535720
     77 O12         4.5030    4.6310    1.9130 o         1 MOL     -0.483557
     78 H34         7.3810    3.8270    0.3610 hn        1 MOL      0.355878
     79 H35         5.0030    4.2960   -1.2100 h1        1 MOL      0.049912
     80 H36         5.9320    5.6030   -0.5810 h1        1 MOL      0.049912
     81 N9          3.1260    5.0070    0.1440 n         1 MOL     -0.559063
     82 C25         1.8050    4.8050    0.8290 c3        1 MOL     -0.020705
     83 C26         1.6820    3.3050    1.1770 c         1 MOL      0.685833
     84 O13         2.3950    2.4700    0.6580 o         1 MOL     -0.518069
     85 C27         0.6440    5.2510   -0.1070 c3        1 MOL     -0.161088
     86 C28         0.5820    6.7620   -0.4850 ca        1 MOL      0.140872
     87 C29         1.0980    7.7410    0.4210 ca        1 MOL     -0.219816
     88 C30         0.0600    7.0940   -1.7620 ca        1 MOL     -0.219816
     89 C31         1.0600    9.1190   -0.0070 ca        1 MOL     -0.193953
     90 C32        -0.0240    8.4980   -2.1190 ca        1 MOL     -0.193953
     91 C33         0.4840    9.4800   -1.1900 ca        1 MOL      0.239828
     92 O14         0.2680   10.7780   -1.5620 oh        1 MOL     -0.426910
     93 H37         3.1570    5.1140   -0.8550 hn        1 MOL      0.305109
     94 H38         1.8190    5.3960    1.7450 h1        1 MOL      0.112085
     95 H39        -0.3380    5.0060    0.2820 hc        1 MOL      0.049559
     96 H40         0.7640    4.6770   -1.0230 hc        1 MOL      0.049559
     97 H41         1.4540    7.5830    1.4280 ha        1 MOL      0.157877
     98 H42        -0.2770    6.2640   -2.3550 ha        1 MOL      0.157877
     99 H43         1.4520    9.8890    0.6450 ha        1 MOL      0.154481
    100 H44        -0.3920    8.8060   -3.0850 ha        1 MOL      0.154481
    101 H45         0.6680   11.3180   -0.8770 ho        1 MOL      0.342717
    102 N10         0.6360    3.1040    1.9950 n         1 MOL     -0.680376
    103 C34         0.1860    1.8210    2.4550 c3        1 MOL      0.242035
    104 C35        -0.1030    0.7920    1.3200 c         1 MOL      0.052518
    105 O15         0.8230    0.2660    0.7390 o         1 MOL     -0.055464
    106 C36         1.2170    1.3310    3.5290 c3        1 MOL      0.142543
    107 C37         0.7940    0.0010    4.1250 c3        1 MOL      0.000099
    108 C38         1.4980    2.4930    4.5390 c3        1 MOL     -0.259285
    109 C39        -0.4940   -0.0490    4.8910 c3        1 MOL     -0.278450
    110 H46         0.1800    3.8960    2.4160 hn        1 MOL      0.344293
    111 H47        -0.7470    2.0610    2.9600 h1        1 MOL      0.027493
    112 H48         2.1240    1.1270    2.9680 hc        1 MOL      0.027878
    113 H49         1.6370   -0.3220    4.7300 hc        1 MOL      0.031122
    114 H50         0.7040   -0.7430    3.3380 hc        1 MOL      0.031122
    115 H51         2.1010    1.9660    5.2670 hc        1 MOL      0.069353
    116 H52         2.1500    3.2750    4.1470 hc        1 MOL      0.069353
    117 H53         0.6570    2.8800    5.1070 hc        1 MOL      0.069353
    118 H54        -0.6700   -1.0040    5.3910 hc        1 MOL      0.062147
    119 H55        -0.4080    0.7170    5.6700 hc        1 MOL      0.062147
    120 H56        -1.2910    0.1570    4.1710 hc        1 MOL      0.062147
    121 N11        -1.3410    0.3920    1.1660 n         1 MOL     -0.307334
    122 C40        -1.7440   -0.5690    0.0840 c3        1 MOL     -0.257317
    123 C41        -3.2060   -0.4830   -0.3130 c         1 MOL      0.669095
    124 O16        -3.6840   -1.2140   -1.2120 o         1 MOL     -0.566466
    125 C42        -1.4830   -1.9930    0.5590 c3        1 MOL      0.495779
    126 O17        -2.2230   -2.4150    1.6970 oh        1 MOL     -0.656592
    127 H57        -2.1270    0.6880    1.7240 hn        1 MOL      0.293027
    128 H58        -1.0810   -0.4470   -0.7750 h1        1 MOL      0.096902
    129 H59        -0.4280   -2.1670    0.7480 h1        1 MOL     -0.067338
    130 H60        -1.6780   -2.6230   -0.3110 h1        1 MOL     -0.067338
    131 H61        -1.5820   -2.5760    2.3940 ho        1 MOL      0.416468
    132 N12        -4.0700    0.3480    0.2720 n         1 MOL     -0.583186
    133 C43        -5.4320    0.4650   -0.1760 c3        1 MOL      0.210705
    134 C44        -5.5150    0.9960   -1.6590 c         1 MOL      0.576646
    135 O18        -4.5990    1.6310   -2.1920 o         1 MOL     -0.568310
    136 C45        -6.2490    1.3110    0.7750 c3        1 MOL     -0.313895
    137 H62        -3.7150    0.8380    1.0860 hn        1 MOL      0.300123
    138 H63        -5.9020   -0.5100   -0.2160 h1        1 MOL      0.088668
    139 H64        -5.6180    2.0800    1.2280 hc        1 MOL      0.100441
    140 H65        -7.1460    1.7920    0.3990 hc        1 MOL      0.100441
    141 H66        -6.7370    0.6780    1.5190 hc        1 MOL      0.100441
    142 N13        -6.6360    0.7820   -2.3660 n         1 MOL     -0.626513
    143 C46        -7.8160    0.1110   -1.9150 c3        1 MOL      0.516527
    144 C47        -9.1710    0.7540   -2.4530 c         1 MOL      0.345613
    145 O19        -9.0950    1.2870   -3.5910 o         1 MOL     -0.539758
    146 C48        -7.5980   -1.3540   -2.1440 c3        1 MOL     -0.241192
    147 H67        -6.6390    1.1580   -3.3020 hn        1 MOL      0.322349
    148 H68        -7.7940    0.2580   -0.8390 h1        1 MOL     -0.091500
    149 H69        -8.2910   -1.9200   -1.5160 hc        1 MOL      0.057051
    150 H70        -7.8210   -1.6540   -3.1590 hc        1 MOL      0.057051
    151 H71        -6.5930   -1.6230   -1.8140 hc        1 MOL      0.057051
    152 N14       -10.3280    0.7080   -1.8280 n         1 MOL     -0.352141
    153 C49       -10.6130    0.1520   -0.4720 c3        1 MOL     -0.211418
    154 C50       -10.2320    1.2160    0.5910 c         1 MOL      0.398712
    155 O20        -9.7170    0.8540    1.6700 o         1 MOL     -0.518297
    156 C51       -12.0480   -0.3000   -0.3370 c3        1 MOL      0.167775
    157 C52       -12.2470   -1.1310    0.9100 c3        1 MOL     -0.387349
    158 C53       -13.6670   -1.7210    0.9970 c         1 MOL      0.755485
    159 O21       -13.9660   -2.6980    0.2860 o         1 MOL     -0.668568
    160 O22       -14.4900   -1.1980    1.7810 o         1 MOL     -0.668568
    161 H72       -11.1380    1.0880   -2.3070 hn        1 MOL      0.285189
    162 H73        -9.9780   -0.7240   -0.3500 h1        1 MOL      0.129801
    163 H74       -12.4490   -0.8000   -1.2120 hc        1 MOL      0.009577
    164 H75       -12.6770    0.5810   -0.2800 hc        1 MOL      0.009577
    165 H76       -12.0570   -0.4950    1.7730 hc        1 MOL      0.097055
    166 H77       -11.5490   -1.9650    0.7630 hc        1 MOL      0.097055
    167 N15       -10.3730    2.4410    0.2830 n         1 MOL     -0.188272
    168 C54        -9.5650    3.5690    0.8000 c3        1 MOL     -0.087615
    169 H78        -8.9960    4.0130   -0.0180 h1        1 MOL      0.070027
    170 H79       -10.2240    4.3210    1.2330 h1        1 MOL      0.070027
    171 H80        -8.8770    3.2040    1.5630 h1        1 MOL      0.070027
    172 H81       -11.0890    2.6050   -0.4140 hn        1 MOL      0.237066
    173 Ca1         2.8120    0.4390   -0.9240 Ca        1 MOL      1.652914
    174 O23         0.5860    1.4860   -1.8300 oh        1 MOL     -0.820691
    175 H82        -0.2010    1.1180   -2.2280 ho        1 MOL      0.404297
    176 H83         0.3670    2.3940   -1.6610 ho        1 MOL      0.404297
    177 O24         1.0630   -1.7900   -1.7460 oh        1 MOL     -0.820691
    178 H84         0.3020   -2.1050   -2.2400 ho        1 MOL      0.404297
    179 H85         1.7750   -1.7540   -2.3820 ho        1 MOL      0.404297
    180 O25         3.0680    2.1670   -3.0900 oh        1 MOL     -0.820691
    181 H86         2.7280    3.0520   -2.9830 ho        1 MOL      0.404297
    182 H87         2.7520    1.8860   -3.9440 ho        1 MOL      0.404297
@<TRIPOS>BOND
     1    1    2 1   
     2    1    4 1   
     3    1    5 1   
     4    1    6 1   
     5    2    3 2   
     6    2    7 1   
     7    7    8 1   
     8    7   15 1   
     9    8    9 1   
    10    8   11 1   
    11    8   16 1   
    12    9   10 2   
    13    9   19 1   
    14   11   12 1   
    15   11   17 1   
    16   11   18 1   
    17   12   13 1   
    18   12   14 1   
    19   19   20 1   
    20   19   28 1   
    21   20   21 1   
    22   20   23 1   
    23   20   29 1   
    24   21   22 2   
    25   21   41 1   
    26   23   24 1   
    27   23   30 1   
    28   23   31 1   
    29   24   25 1   
    30   24   32 1   
    31   24   33 1   
    32   25   26 1   
    33   25   34 1   
    34   25   35 1   
    35   26   27 1   
    36   26   36 1   
    37   26   37 1   
    38   27   38 1   
    39   27   39 1   
    40   27   40 1   
    41   41   42 1   
    42   41   49 1   
    43   42   43 1   
    44   42   45 1   
    45   42   50 1   
    46   43   44 2   
    47   43   53 1   
    48   45   46 1   
    49   45   51 1   
    50   45   52 1   
    51   46   47 1   
    52   46   48 1   
    53   53   54 1   
    54   53   57 1   
    55   54   55 1   
    56   54   58 1   
    57   54   59 1   
    58   55   56 2   
    59   55   60 1   
    60   60   61 1   
    61   60   68 1   
    62   61   62 1   
    63   61   64 1   
    64   61   69 1   
    65   62   63 2   
    66   62   74 1   
    67   64   65 1   
    68   64   70 1   
    69   64   71 1   
    70   65   66 1   
    71   65   67 2   
    72   66   72 1   
    73   66   73 1   
    74   74   75 1   
    75   74   78 1   
    76   75   76 1   
    77   75   79 1   
    78   75   80 1   
    79   76   77 2   
    80   76   81 1   
    81   81   82 1   
    82   81   93 1   
    83   82   83 1   
    84   82   85 1   
    85   82   94 1   
    86   83   84 2   
    87   83  102 1   
    88   85   86 1   
    89   85   95 1   
    90   85   96 1   
    91   86   87 ar  
    92   86   88 ar  
    93   87   89 ar  
    94   87   97 1   
    95   88   90 ar  
    96   88   98 1   
    97   89   91 ar  
    98   89   99 1   
    99   90   91 ar  
   100   90  100 1   
   101   91   92 1   
   102   92  101 1   
   103  102  103 1   
   104  102  110 1   
   105  103  104 1   
   106  103  106 1   
   107  103  111 1   
   108  104  105 2   
   109  104  121 1   
   110  106  107 1   
   111  106  108 1   
   112  106  112 1   
   113  107  109 1   
   114  107  113 1   
   115  107  114 1   
   116  108  115 1   
   117  108  116 1   
   118  108  117 1   
   119  109  118 1   
   120  109  119 1   
   121  109  120 1   
   122  121  122 1   
   123  121  127 1   
   124  122  123 1   
   125  122  125 1   
   126  122  128 1   
   127  123  124 2   
   128  123  132 1   
   129  125  126 1   
   130  125  129 1   
   131  125  130 1   
   132  126  131 1   
   133  132  133 1   
   134  132  137 1   
   135  133  134 1   
   136  133  136 1   
   137  133  138 1   
   138  134  135 2   
   139  134  142 1   
   140  136  139 1   
   141  136  140 1   
   142  136  141 1   
   143  142  143 1   
   144  142  147 1   
   145  143  144 1   
   146  143  146 1   
   147  143  148 1   
   148  144  145 2   
   149  144  152 1   
   150  146  149 1   
   151  146  150 1   
   152  146  151 1   
   153  152  153 1   
   154  152  161 1   
   155  153  154 1   
   156  153  156 1   
   157  153  162 1   
   158  154  155 2   
   159  154  167 1   
   160  156  157 1   
   161  156  163 1   
   162  156  164 1   
   163  157  158 1   
   164  157  165 1   
   165  157  166 1   
   166  158  159 1   
   167  158  160 1   
   168  167  168 1   
   169  167  172 1   
   170  168  169 1   
   171  168  170 1   
   172  168  171 1   
   173  174  175 1   
   174  174  176 1   
   175  177  178 1   
   176  177  179 1   
   177  180  181 1   
   178  180  182 1   
@<TRIPOS>SUBSTRUCTURE
     1 MOL         1 TEMP              0 ****  ****    0 ROOT
