@<TRIPOS>MOLECULE
MOL
  192   187     1     0     0
SMALL
resp


@<TRIPOS>ATOM
      1 C1         -9.5540    0.3030   -2.1970 c3        1 MOL     -0.529583
      2 C2         -8.2670    0.0510   -1.2780 c         1 MOL      0.716231
      3 O1         -7.2100   -0.2700   -1.7550 o         1 MOL     -0.687477
      4 H1         -9.3540    1.1250   -2.8840 hc        1 MOL      0.136972
      5 H2         -9.7780   -0.5990   -2.7660 hc        1 MOL      0.136972
      6 H3        -10.4070    0.5570   -1.5660 hc        1 MOL      0.136972
      7 N1         -8.4720   -0.1430    0.0270 n         1 MOL     -0.463876
      8 C3         -7.4140   -0.3550    1.0780 c3        1 MOL     -0.099333
      9 C4         -6.7840   -1.7760    1.2040 c         1 MOL      0.652564
     10 O2         -6.6600   -2.3030    2.2950 o         1 MOL     -0.459620
     11 C5         -8.0810    0.0930    2.3820 c3        1 MOL     -0.092397
     12 C6         -9.3400   -0.7030    2.7910 c         1 MOL      0.629454
     13 O3        -10.2520   -0.8430    1.9310 o         1 MOL     -0.632905
     14 O4         -9.4510   -1.1540    3.9460 o         1 MOL     -0.632905
     15 H4         -9.4110   -0.0450    0.3800 hn        1 MOL      0.204199
     16 H5         -6.6440    0.3900    0.9050 h1        1 MOL      0.101050
     17 H6         -8.2080    1.1740    2.3800 hc        1 MOL      0.048113
     18 H7         -7.3440   -0.0730    3.1700 hc        1 MOL      0.048113
     19 N2         -6.5790   -2.4290    0.0770 n         1 MOL     -0.513041
     20 C7         -6.0270   -3.7860   -0.0810 c3        1 MOL      0.017350
     21 C8         -4.5610   -4.0300    0.2790 c         1 MOL      0.548701
     22 O5         -4.1770   -5.1380    0.7490 o         1 MOL     -0.556700
     23 C9         -6.1940   -4.1930   -1.5360 c3        1 MOL     -0.166425
     24 C10        -7.6460   -4.2820   -1.9940 c3        1 MOL     -0.011110
     25 C11        -7.8690   -4.5050   -3.4980 c3        1 MOL      0.010404
     26 C12        -9.3890   -4.4040   -3.9650 c3        1 MOL      0.093772
     27 N3         -9.6160   -4.9160   -5.3300 n4        1 MOL     -0.317378
     28 H8         -6.8760   -1.9800   -0.7810 hn        1 MOL      0.407200
     29 H9         -6.5470   -4.4760    0.5980 h1        1 MOL      0.092419
     30 H10        -5.7960   -5.1880   -1.7550 hc        1 MOL      0.073551
     31 H11        -5.6380   -3.4430   -2.1000 hc        1 MOL      0.073551
     32 H12        -8.2930   -3.4310   -1.7720 hc        1 MOL      0.041141
     33 H13        -8.1170   -5.1850   -1.5910 hc        1 MOL      0.041141
     34 H14        -7.4670   -5.4800   -3.7730 hc        1 MOL      0.004766
     35 H15        -7.3660   -3.7320   -4.0830 hc        1 MOL      0.004766
     36 H16        -9.5850   -3.3370   -3.9450 hx        1 MOL      0.055218
     37 H17        -9.9580   -4.9510   -3.2240 hx        1 MOL      0.055218
     38 H18        -9.1820   -5.8280   -5.4040 hn        1 MOL      0.314424
     39 H19       -10.5970   -4.9650   -5.5580 hn        1 MOL      0.314424
     40 H20        -9.2290   -4.4170   -6.1240 hn        1 MOL      0.314424
     41 N4         -3.6100   -3.0940    0.1140 n         1 MOL     -0.497350
     42 C13        -3.5960   -1.8470   -0.7410 c3        1 MOL      0.168630
     43 C14        -3.7220   -0.5430   -0.0030 c         1 MOL     -0.131095
     44 O6         -3.5440   -0.5240    1.1970 o         1 MOL     -0.281565
     45 C15        -2.2940   -1.7640   -1.5580 c3        1 MOL     -0.136135
     46 C16        -1.0140   -1.9940   -0.8210 c         1 MOL      0.483404
     47 O7         -0.8140   -1.3540    0.2050 o         1 MOL     -0.599584
     48 O8         -0.1110   -2.7760   -1.2530 o         1 MOL     -0.599584
     49 H21        -2.7800   -3.1920    0.6690 hn        1 MOL      0.410638
     50 H22        -4.3640   -1.8790   -1.5080 h1        1 MOL      0.073948
     51 H23        -2.2540   -0.8030   -2.0620 hc        1 MOL      0.043977
     52 H24        -2.3450   -2.5040   -2.3650 hc        1 MOL      0.043977
     53 N5         -4.1100    0.5840   -0.6620 n         1 MOL      0.019783
     54 C17        -4.3180    1.8630    0.0440 c3        1 MOL     -0.242190
     55 C18        -3.0280    2.4860    0.7480 c         1 MOL      0.627099
     56 O9         -1.9130    2.0540    0.6500 o         1 MOL     -0.488872
     57 H25        -4.3400    0.5140   -1.6460 hn        1 MOL      0.218607
     58 H26        -5.0830    1.8240    0.8140 h1        1 MOL      0.091539
     59 H27        -4.6310    2.5610   -0.7350 h1        1 MOL      0.091539
     60 N6         -3.2570    3.5180    1.5390 n         1 MOL     -0.489060
     61 C19        -2.1740    4.3420    2.1610 c3        1 MOL      0.305265
     62 C20        -2.6200    5.8480    2.0490 c         1 MOL      0.340365
     63 O10        -3.8050    6.1230    2.1120 o         1 MOL     -0.501631
     64 C21        -1.9310    3.9640    3.6550 c3        1 MOL     -0.230316
     65 C22        -1.4240    2.5380    4.0570 c         1 MOL      0.602691
     66 O11        -2.1560    1.6850    4.6450 o         1 MOL     -0.639544
     67 O12        -0.3450    2.1670    3.5650 o         1 MOL     -0.639544
     68 H28        -4.2120    3.8020    1.6910 hn        1 MOL      0.291183
     69 H29        -1.2410    4.3540    1.6050 h1        1 MOL      0.007739
     70 H30        -2.8650    4.0760    4.1980 hc        1 MOL      0.060691
     71 H31        -1.2650    4.6930    4.1210 hc        1 MOL      0.060691
     72 N7         -1.7890    6.9230    1.9880 n         1 MOL     -0.300850
     73 C23        -0.3950    6.9610    2.2220 c3        1 MOL     -0.054274
     74 C24         0.4150    6.5320    1.0340 c         1 MOL      0.585945
     75 O13         0.2130    7.0710   -0.0510 o         1 MOL     -0.548033
     76 H32        -2.2550    7.7820    1.7300 hn        1 MOL      0.296754
     77 H33        -0.0260    6.3650    3.0620 h1        1 MOL      0.052962
     78 H34        -0.1030    7.9750    2.5080 h1        1 MOL      0.052962
     79 N8          1.2970    5.5480    1.1800 n         1 MOL     -0.477988
     80 C25         2.1270    4.9710    0.1040 c3        1 MOL      0.018278
     81 C26         1.4210    3.7380   -0.5550 c         1 MOL      0.458783
     82 O14         0.8030    2.9150    0.1500 o         1 MOL     -0.798301
     83 C27         3.4890    4.4530    0.6440 c3        1 MOL      0.474238
     84 C28         4.2800    5.4720    1.3580 c3        1 MOL     -0.443692
     85 O15         4.3530    3.8210   -0.3610 oh        1 MOL     -0.715599
     86 H35         1.4810    5.2770    2.1310 hn        1 MOL      0.271412
     87 H36         2.3290    5.6750   -0.7080 h1        1 MOL      0.071481
     88 H37         3.2460    3.6650    1.3610 h1        1 MOL      0.040767
     89 H38         4.9640    4.4460   -0.7600 ho        1 MOL      0.425686
     90 H39         5.3010    5.0990    1.3770 hc        1 MOL      0.113033
     91 H40         4.2540    6.4530    0.8780 hc        1 MOL      0.113033
     92 H41         3.9290    5.4860    2.3900 hc        1 MOL      0.113033
     93 N9          1.4090    3.6940   -1.8480 n         1 MOL     -0.340487
     94 C29         0.7430    2.6910   -2.7630 c3        1 MOL     -0.010074
     95 C30         1.1620    1.2310   -2.3570 c         1 MOL      0.321285
     96 O16         0.6880    0.7270   -1.2880 o         1 MOL     -0.403588
     97 C31        -0.8080    2.9340   -2.7080 c3        1 MOL      0.676448
     98 C32        -1.2110    4.4360   -2.4440 c3        1 MOL     -0.408191
     99 C33        -1.4030    2.4040   -4.0230 c3        1 MOL     -0.303237
    100 C34        -0.8230    5.3850   -3.5860 c3        1 MOL     -0.061970
    101 H42         2.0370    4.3840   -2.2230 hn        1 MOL      0.257177
    102 H43         1.1150    2.9550   -3.7530 h1        1 MOL      0.047910
    103 H44        -1.3310    2.4270   -1.9010 hc        1 MOL     -0.188393
    104 H45        -0.8890    4.8450   -1.4830 hc        1 MOL      0.127254
    105 H46        -2.2980    4.4500   -2.4120 hc        1 MOL      0.127254
    106 H47        -2.4640    2.6800   -4.0930 hc        1 MOL      0.044247
    107 H48        -0.7990    2.8670   -4.8070 hc        1 MOL      0.044247
    108 H49        -1.2850    1.3300   -4.1320 hc        1 MOL      0.044247
    109 H50        -1.1930    6.4060   -3.4880 hc        1 MOL      0.020406
    110 H51         0.2510    5.4880   -3.7500 hc        1 MOL      0.020406
    111 H52        -1.2840    5.1110   -4.5300 hc        1 MOL      0.020406
    112 N10         2.1220    0.7010   -3.0440 n         1 MOL     -0.172712
    113 C35         2.4700   -0.6970   -2.9540 c3        1 MOL     -0.089853
    114 C36         3.9950   -0.9930   -2.9800 c         1 MOL      0.448707
    115 O17         4.5170   -2.0940   -3.2230 o         1 MOL     -0.556071
    116 C37         1.6860   -1.5000   -3.9800 c3        1 MOL      0.429162
    117 C38         1.8450   -0.9570   -5.3830 c3        1 MOL     -0.166884
    118 O18         0.3510   -1.3400   -3.5650 oh        1 MOL     -0.560319
    119 H53         2.4700    1.1530   -3.8710 hn        1 MOL      0.205650
    120 H54         2.2380   -1.0210   -1.9330 h1        1 MOL      0.121502
    121 H55         2.0960   -2.5060   -3.9690 h1        1 MOL      0.001829
    122 H56         0.2370   -1.8040   -2.7260 ho        1 MOL      0.252914
    123 H57         1.4060    0.0380   -5.4220 hc        1 MOL      0.025916
    124 H58         2.9240   -0.9350   -5.5610 hc        1 MOL      0.025916
    125 H59         1.3590   -1.6090   -6.1140 hc        1 MOL      0.025916
    126 N11         4.7670    0.0940   -2.9840 n         1 MOL     -0.176122
    127 C39         6.2800    0.0720   -3.0530 c3        1 MOL     -0.131769
    128 C40         6.8380   -0.4480   -1.7320 c         1 MOL      0.583880
    129 O19         7.2810    0.3300   -0.9030 o         1 MOL     -0.534672
    130 C41         6.9330    1.3700   -3.5810 c3        1 MOL      0.354223
    131 C42         6.7060    1.4650   -5.0780 c3        1 MOL     -0.174153
    132 O20         6.1680    2.4750   -3.0840 oh        1 MOL     -0.589455
    133 H60         4.2200    0.9200   -2.7990 hn        1 MOL      0.215362
    134 H61         6.6080   -0.6710   -3.7780 h1        1 MOL      0.084254
    135 H62         7.9960    1.4730   -3.3570 h1        1 MOL      0.029542
    136 H63         6.8360    3.1030   -2.7810 ho        1 MOL      0.366994
    137 H64         7.5530    0.9130   -5.4750 hc        1 MOL      0.031445
    138 H65         5.7230    1.1010   -5.3840 hc        1 MOL      0.031445
    139 H66         6.7000    2.4970   -5.4110 hc        1 MOL      0.031445
    140 N12         6.7110   -1.7920   -1.4390 n         1 MOL     -0.719363
    141 C43         6.6090   -2.4630   -0.1380 c3        1 MOL      0.508017
    142 C44         5.3670   -1.9620    0.7010 c         1 MOL      0.319771
    143 O21         4.7480   -0.9160    0.3770 o         1 MOL     -0.379202
    144 C45         7.9640   -2.2940    0.6170 c3        1 MOL     -0.631701
    145 C46         9.2350   -2.7100   -0.1470 c3        1 MOL      0.087482
    146 C47        10.4580   -2.6550    0.7040 c3        1 MOL      0.069290
    147 C48        11.6560   -3.1450   -0.2070 c3        1 MOL     -0.149805
    148 N13        12.9090   -3.5210    0.5200 n4        1 MOL     -0.012078
    149 H67         6.3910   -2.3590   -2.2070 hn        1 MOL      0.329908
    150 H68         6.4160   -3.5310   -0.2440 h1        1 MOL     -0.004920
    151 H69         7.8220   -2.8680    1.5320 hc        1 MOL      0.165248
    152 H70         8.1120   -1.2440    0.8910 hc        1 MOL      0.165248
    153 H71         9.3510   -2.0190   -0.9880 hc        1 MOL      0.035482
    154 H72         9.0970   -3.6690   -0.6440 hc        1 MOL      0.035482
    155 H73        10.2400   -3.3310    1.5320 hc        1 MOL      0.035725
    156 H74        10.6210   -1.6280    1.0240 hc        1 MOL      0.035725
    157 H75        11.8250   -2.3290   -0.9090 hx        1 MOL      0.096256
    158 H76        11.3850   -4.0790   -0.6900 hx        1 MOL      0.096256
    159 H77        13.5740   -4.0600   -0.0200 hn        1 MOL      0.161942
    160 H78        13.3880   -2.6740    0.7840 hn        1 MOL      0.161942
    161 H79        12.7710   -4.0140    1.3920 hn        1 MOL      0.161942
    162 N14         4.9660   -2.8260    1.6850 n         1 MOL     -0.324226
    163 C49         3.7800   -2.5960    2.4670 c3        1 MOL     -0.038630
    164 C50         2.5240   -2.4560    1.5650 c         1 MOL      0.410758
    165 O22         1.8520   -1.4210    1.6060 o         1 MOL     -0.591758
    166 C51         3.5400   -3.7320    3.5190 c3        1 MOL      0.034748
    167 C52         4.5890   -3.7610    4.6690 c3        1 MOL     -0.300874
    168 C53         4.3240   -4.8670    5.6900 c         1 MOL      0.686202
    169 O23         4.7550   -6.0520    5.4570 o         1 MOL     -0.648148
    170 O24         3.5920   -4.5970    6.6520 o         1 MOL     -0.648148
    171 H80         5.5650   -3.5750    1.9900 hn        1 MOL      0.289913
    172 H81         3.9500   -1.6330    2.9460 h1        1 MOL      0.093863
    173 H82         3.4660   -4.7350    3.0960 hc        1 MOL      0.078756
    174 H83         2.5730   -3.5450    3.9830 hc        1 MOL      0.078756
    175 H84         4.4510   -2.7820    5.1220 hc        1 MOL      0.037267
    176 H85         5.6250   -3.7970    4.3050 hc        1 MOL      0.037267
    177 N15         2.0770   -3.3230    0.6800 n         1 MOL     -0.277320
    178 C54         2.6650   -4.5720    0.2870 c3        1 MOL      0.071285
    179 H86         2.0510   -5.3950    0.6530 h1        1 MOL     -0.007444
    180 H87         2.7240   -4.6200   -0.8010 h1        1 MOL     -0.007444
    181 H88         3.6670   -4.6520    0.7090 h1        1 MOL     -0.007444
    182 H89         1.3280   -3.0420    0.0670 hn        1 MOL      0.337730
    183 Ca1         0.2930    0.7870    1.3810 Ca        1 MOL      1.829753
    184 O25         3.2290    1.2280    0.1540 oh        1 MOL     -0.891768
    185 H90         3.7430    2.0100    0.3660 ho        1 MOL      0.416179
    186 H91         3.8250    0.4970    0.2710 ho        1 MOL      0.416179
    187 O26         2.1620    1.2580    3.1180 oh        1 MOL     -0.891768
    188 H92         3.0890    1.4930    3.0680 ho        1 MOL      0.416179
    189 H93         1.9580    1.2880    4.0530 ho        1 MOL      0.416179
    190 O27        -1.0000   -0.8270    3.7980 oh        1 MOL     -0.891768
    191 H94        -0.9660   -1.5470    4.4330 ho        1 MOL      0.416179
    192 H95        -1.3020   -0.0680    4.3050 ho        1 MOL      0.416179
@<TRIPOS>BOND
     1    1    2 1   
     2    1    4 1   
     3    1    5 1   
     4    1    6 1   
     5    2    3 2   
     6    2    7 1   
     7    7    8 1   
     8    7   15 1   
     9    8    9 1   
    10    8   11 1   
    11    8   16 1   
    12    9   10 2   
    13    9   19 1   
    14   11   12 1   
    15   11   17 1   
    16   11   18 1   
    17   12   13 1   
    18   12   14 1   
    19   19   20 1   
    20   19   28 1   
    21   20   21 1   
    22   20   23 1   
    23   20   29 1   
    24   21   22 2   
    25   21   41 1   
    26   23   24 1   
    27   23   30 1   
    28   23   31 1   
    29   24   25 1   
    30   24   32 1   
    31   24   33 1   
    32   25   26 1   
    33   25   34 1   
    34   25   35 1   
    35   26   27 1   
    36   26   36 1   
    37   26   37 1   
    38   27   38 1   
    39   27   39 1   
    40   27   40 1   
    41   41   42 1   
    42   41   49 1   
    43   42   43 1   
    44   42   45 1   
    45   42   50 1   
    46   43   44 2   
    47   43   53 1   
    48   45   46 1   
    49   45   51 1   
    50   45   52 1   
    51   46   47 1   
    52   46   48 1   
    53   53   54 1   
    54   53   57 1   
    55   54   55 1   
    56   54   58 1   
    57   54   59 1   
    58   55   56 2   
    59   55   60 1   
    60   60   61 1   
    61   60   68 1   
    62   61   62 1   
    63   61   64 1   
    64   61   69 1   
    65   62   63 2   
    66   62   72 1   
    67   64   65 1   
    68   64   70 1   
    69   64   71 1   
    70   65   66 1   
    71   65   67 1   
    72   72   73 1   
    73   72   76 1   
    74   73   74 1   
    75   73   77 1   
    76   73   78 1   
    77   74   75 2   
    78   74   79 1   
    79   79   80 1   
    80   79   86 1   
    81   80   81 1   
    82   80   83 1   
    83   80   87 1   
    84   81   82 2   
    85   81   93 1   
    86   83   84 1   
    87   83   85 1   
    88   83   88 1   
    89   84   90 1   
    90   84   91 1   
    91   84   92 1   
    92   85   89 1   
    93   93   94 1   
    94   93  101 1   
    95   94   95 1   
    96   94   97 1   
    97   94  102 1   
    98   95   96 2   
    99   95  112 1   
   100   97   98 1   
   101   97   99 1   
   102   97  103 1   
   103   98  100 1   
   104   98  104 1   
   105   98  105 1   
   106   99  106 1   
   107   99  107 1   
   108   99  108 1   
   109  100  109 1   
   110  100  110 1   
   111  100  111 1   
   112  112  113 1   
   113  112  119 1   
   114  113  114 1   
   115  113  116 1   
   116  113  120 1   
   117  114  115 2   
   118  114  126 1   
   119  116  117 1   
   120  116  118 1   
   121  116  121 1   
   122  117  123 1   
   123  117  124 1   
   124  117  125 1   
   125  118  122 1   
   126  126  127 1   
   127  126  133 1   
   128  127  128 1   
   129  127  130 1   
   130  127  134 1   
   131  128  129 2   
   132  128  140 1   
   133  130  131 1   
   134  130  132 1   
   135  130  135 1   
   136  131  137 1   
   137  131  138 1   
   138  131  139 1   
   139  132  136 1   
   140  140  141 1   
   141  140  149 1   
   142  141  142 1   
   143  141  144 1   
   144  141  150 1   
   145  142  143 2   
   146  142  162 1   
   147  144  145 1   
   148  144  151 1   
   149  144  152 1   
   150  145  146 1   
   151  145  153 1   
   152  145  154 1   
   153  146  147 1   
   154  146  155 1   
   155  146  156 1   
   156  147  148 1   
   157  147  157 1   
   158  147  158 1   
   159  148  159 1   
   160  148  160 1   
   161  148  161 1   
   162  162  163 1   
   163  162  171 1   
   164  163  164 1   
   165  163  166 1   
   166  163  172 1   
   167  164  165 2   
   168  164  177 1   
   169  166  167 1   
   170  166  173 1   
   171  166  174 1   
   172  167  168 1   
   173  167  175 1   
   174  167  176 1   
   175  168  169 1   
   176  168  170 1   
   177  177  178 1   
   178  177  182 1   
   179  178  179 1   
   180  178  180 1   
   181  178  181 1   
   182  184  185 1   
   183  184  186 1   
   184  187  188 1   
   185  187  189 1   
   186  190  191 1   
   187  190  192 1   
@<TRIPOS>SUBSTRUCTURE
     1 MOL         1 TEMP              0 ****  ****    0 ROOT
