@<TRIPOS>MOLECULE
MOL
  192   187     1     0     0
SMALL
resp


@<TRIPOS>ATOM
      1 C1         -2.8510    7.1530    2.8100 c3        1 MOL     -0.369227
      2 C2         -2.9330    5.6330    2.4780 c         1 MOL      0.583154
      3 O1         -2.4960    4.8090    3.3480 o         1 MOL     -0.601455
      4 H1         -3.2090    7.3230    3.8250 hc        1 MOL      0.103007
      5 H2         -1.8170    7.4880    2.7290 hc        1 MOL      0.103007
      6 H3         -3.4700    7.7130    2.1080 hc        1 MOL      0.103007
      7 N1         -3.5210    5.2250    1.3810 n         1 MOL     -0.384087
      8 C3         -3.6470    3.8940    0.7380 c3        1 MOL     -0.032671
      9 C4         -2.3220    3.2140    0.3300 c         1 MOL      0.616037
     10 O2         -2.3480    2.0410   -0.0230 o         1 MOL     -0.597726
     11 C5         -4.6470    3.9190   -0.5200 c3        1 MOL     -0.245065
     12 C6         -4.2770    5.0290   -1.5310 c         1 MOL      0.643600
     13 O3         -3.9220    4.7410   -2.7010 o         1 MOL     -0.662389
     14 O4         -4.3830    6.2590   -1.1270 o         1 MOL     -0.662389
     15 H4         -3.9200    6.0180    0.8910 hn        1 MOL      0.263470
     16 H5         -4.0340    3.2780    1.5540 h1        1 MOL      0.118899
     17 H6         -5.6600    4.0480   -0.1540 hc        1 MOL      0.083696
     18 H7         -4.6080    3.0160   -1.1290 hc        1 MOL      0.083696
     19 N2         -1.1880    3.8480    0.4030 n         1 MOL     -0.505614
     20 C7          0.1470    3.3470    0.0130 c3        1 MOL      0.350324
     21 C8          1.0640    3.1320    1.2550 c         1 MOL      0.543779
     22 O5          1.1650    4.0300    2.1140 o         1 MOL     -0.572682
     23 C9          0.7330    4.4360   -0.8310 c3        1 MOL      0.059076
     24 C10         0.0410    4.7700   -2.1490 c3        1 MOL      0.025869
     25 C11         0.3830    3.8670   -3.3470 c3        1 MOL     -0.281745
     26 C12        -0.6770    4.0600   -4.4300 c3        1 MOL      0.079391
     27 N3         -2.0190    3.5440   -4.2110 n4        1 MOL     -0.572362
     28 H8         -1.2940    4.8360    0.5770 hn        1 MOL      0.235030
     29 H9          0.0550    2.3880   -0.4910 h1        1 MOL      0.067470
     30 H10         1.7730    4.1370   -1.0090 hc        1 MOL      0.010395
     31 H11         0.9320    5.3470   -0.2650 hc        1 MOL      0.010395
     32 H12         0.2270    5.8210   -2.3500 hc        1 MOL      0.010914
     33 H13        -1.0410    4.7310   -2.0060 hc        1 MOL      0.010914
     34 H14         0.3470    2.8070   -3.1150 hc        1 MOL      0.119638
     35 H15         1.3230    4.2340   -3.7510 hc        1 MOL      0.119638
     36 H16        -0.2290    3.8820   -5.4120 hx        1 MOL      0.076620
     37 H17        -0.8560    5.1300   -4.4930 hx        1 MOL      0.076620
     38 H18        -2.5130    3.9140   -3.4050 hn        1 MOL      0.366385
     39 H19        -2.4850    3.6990   -5.0890 hn        1 MOL      0.366385
     40 H20        -1.8770    2.5700   -4.0160 hn        1 MOL      0.366385
     41 N4          1.7390    2.0350    1.4720 n         1 MOL     -0.603448
     42 C13         2.1200    0.9420    0.5350 c3        1 MOL      0.054808
     43 C14         2.3740    1.3150   -0.9030 c         1 MOL      0.007928
     44 O6          1.6460    1.0590   -1.8110 o         1 MOL     -0.435292
     45 C15         1.1010   -0.2370    0.5770 c3        1 MOL      0.051110
     46 C16         0.6980   -0.8180    1.8730 c         1 MOL      0.572645
     47 O7         -0.4170   -1.3610    2.0110 o         1 MOL     -0.735535
     48 O8          1.4370   -0.7670    2.8800 o         1 MOL     -0.735535
     49 H21         2.3060    2.1180    2.3040 hn        1 MOL      0.335672
     50 H22         3.0090    0.4530    0.9380 h1        1 MOL      0.125500
     51 H23         1.4930   -0.9950   -0.0960 hc        1 MOL      0.046728
     52 H24         0.1660    0.1370    0.1500 hc        1 MOL      0.046728
     53 N5          3.5020    1.9870   -1.2400 n         1 MOL     -0.081817
     54 C17         4.6590    2.2950   -0.3790 c3        1 MOL     -0.097243
     55 C18         5.6520    3.2770   -0.9260 c         1 MOL      0.460727
     56 O9          5.3030    3.9990   -1.8840 o         1 MOL     -0.548133
     57 H25         3.3940    2.6340   -2.0120 hn        1 MOL      0.205023
     58 H26         5.3380    1.4460   -0.2590 h1        1 MOL      0.085912
     59 H27         4.4740    2.6510    0.6430 h1        1 MOL      0.085912
     60 N6          6.8640    3.4060   -0.4010 n         1 MOL     -0.402393
     61 C19         7.5230    2.6300    0.6710 c3        1 MOL      0.078933
     62 C20         8.1440    1.3640    0.0870 c         1 MOL      0.700518
     63 O10         8.4000    1.3240   -1.1020 o         1 MOL     -0.510885
     64 C21         8.5460    3.5890    1.3700 c3        1 MOL     -0.250210
     65 C22         9.5360    4.3710    0.5530 c         1 MOL      0.733121
     66 O11        10.6820    4.6050    0.9950 o         1 MOL     -0.624971
     67 O12         9.2980    4.8570   -0.5730 o         1 MOL     -0.624971
     68 H28         7.5020    4.0600   -0.8300 hn        1 MOL      0.279892
     69 H29         6.7870    2.3290    1.4030 h1        1 MOL     -0.004081
     70 H30         9.1730    2.9630    2.0070 hc        1 MOL      0.045979
     71 H31         8.0570    4.3020    2.0260 hc        1 MOL      0.045979
     72 N7          8.5100    0.3980    0.9860 n         1 MOL     -0.501161
     73 C23         9.2370   -0.8330    0.6990 c3        1 MOL     -0.079674
     74 C24         8.4570   -2.0450    0.3180 c         1 MOL      0.542048
     75 O13         8.8690   -2.8380   -0.4930 o         1 MOL     -0.532294
     76 H32         8.2980    0.4870    1.9640 hn        1 MOL      0.292883
     77 H33         9.9000   -1.1320    1.5000 h1        1 MOL      0.104107
     78 H34        10.0990   -0.6860    0.0470 h1        1 MOL      0.104107
     79 N8          7.2450   -2.1500    0.9140 n         1 MOL     -0.598488
     80 C25         6.2270   -3.1120    0.5130 c3        1 MOL      0.294115
     81 C26         5.0360   -2.4180   -0.1470 c         1 MOL      0.681668
     82 O14         4.6840   -1.3150    0.1840 o         1 MOL     -0.592801
     83 C27         5.9380   -4.0610    1.6570 c3        1 MOL      0.211601
     84 C28         5.2380   -5.3650    1.3430 c3        1 MOL     -0.275476
     85 O15         5.3700   -3.3890    2.8140 oh        1 MOL     -0.598138
     86 H35         7.0620   -1.3820    1.5510 hn        1 MOL      0.251886
     87 H36         6.6520   -3.7680   -0.2410 h1        1 MOL      0.010576
     88 H37         6.9130   -4.3840    2.0070 h1        1 MOL      0.016833
     89 H38         5.6320   -3.9100    3.5740 ho        1 MOL      0.389745
     90 H39         4.3170   -5.1160    0.8230 hc        1 MOL      0.066112
     91 H40         5.8280   -5.9010    0.6050 hc        1 MOL      0.066112
     92 H41         5.2420   -6.0240    2.2150 hc        1 MOL      0.066112
     93 N9          4.4850   -3.0760   -1.1610 n         1 MOL     -0.441036
     94 C29         3.4180   -2.6270   -2.0790 c3        1 MOL     -0.572150
     95 C30         2.3430   -3.6130   -2.3000 c         1 MOL      0.714857
     96 O16         2.5500   -4.7760   -2.7170 o         1 MOL     -0.575112
     97 C31         3.9600   -2.1030   -3.4970 c3        1 MOL      0.015229
     98 C32         4.9560   -3.0700   -4.2660 c3        1 MOL      0.208764
     99 C33         4.6940   -0.7560   -3.2730 c3        1 MOL     -0.381883
    100 C34         5.3840   -2.6070   -5.6070 c3        1 MOL     -0.176325
    101 H42         4.7710   -4.0230   -1.3590 hn        1 MOL      0.270357
    102 H43         2.9650   -1.7770   -1.5650 h1        1 MOL      0.457495
    103 H44         3.0880   -1.8860   -4.1060 hc        1 MOL      0.025452
    104 H45         4.5060   -4.0600   -4.3490 hc        1 MOL     -0.005311
    105 H46         5.8420   -3.0950   -3.6350 hc        1 MOL     -0.005311
    106 H47         4.7340   -0.1470   -4.1750 hc        1 MOL      0.121744
    107 H48         4.2030   -0.1870   -2.4740 hc        1 MOL      0.121744
    108 H49         5.7580   -0.7940   -3.0660 hc        1 MOL      0.121744
    109 H50         4.5300   -2.6640   -6.2800 hc        1 MOL      0.036001
    110 H51         5.9800   -1.6930   -5.6220 hc        1 MOL      0.036001
    111 H52         6.0690   -3.4340   -5.7810 hc        1 MOL      0.036001
    112 N10         1.1610   -3.1780   -1.9660 n         1 MOL     -0.317119
    113 C35        -0.1030   -3.9120   -2.0930 c3        1 MOL     -0.111612
    114 C36        -1.2480   -2.9570   -2.2750 c         1 MOL      0.594006
    115 O17        -1.0760   -1.7240   -2.1270 o         1 MOL     -0.514597
    116 C37        -0.3200   -4.8110   -0.8480 c3        1 MOL      0.312198
    117 C38         0.2850   -4.4380    0.5090 c3        1 MOL     -0.404701
    118 O18         0.3440   -6.0380   -1.1720 oh        1 MOL     -0.667595
    119 H53         1.1250   -2.2320   -1.6240 hn        1 MOL      0.160270
    120 H54        -0.0580   -4.5170   -2.9960 h1        1 MOL      0.097875
    121 H55        -1.3560   -5.1440   -0.8240 h1        1 MOL      0.107331
    122 H56         1.2400   -5.7790   -1.3730 ho        1 MOL      0.410253
    123 H57         0.1330   -3.3620    0.6300 hc        1 MOL      0.141104
    124 H58        -0.2380   -5.0030    1.2840 hc        1 MOL      0.141104
    125 H59         1.3530   -4.6290    0.5330 hc        1 MOL      0.141104
    126 N11        -2.4300   -3.4900   -2.4440 n         1 MOL     -0.604749
    127 C39        -3.6440   -2.5530   -2.3690 c3        1 MOL     -0.014711
    128 C40        -4.8530   -3.1180   -1.6960 c         1 MOL      0.528080
    129 O19        -5.1190   -4.3030   -1.9290 o         1 MOL     -0.518540
    130 C41        -4.0810   -2.1640   -3.8050 c3        1 MOL      0.515080
    131 C42        -3.0130   -1.7910   -4.8290 c3        1 MOL     -0.569938
    132 O20        -4.9830   -1.0460   -3.7340 oh        1 MOL     -0.655412
    133 H60        -2.5650   -4.4880   -2.4830 hn        1 MOL      0.334940
    134 H61        -3.3410   -1.6060   -1.9410 h1        1 MOL      0.131570
    135 H62        -4.6030   -3.0250   -4.2290 h1        1 MOL     -0.038957
    136 H63        -5.6560   -1.3180   -4.3690 ho        1 MOL      0.375745
    137 H64        -3.5270   -1.7390   -5.7890 hc        1 MOL      0.147102
    138 H65        -2.5050   -0.8700   -4.5460 hc        1 MOL      0.147102
    139 H66        -2.2120   -2.5290   -4.9330 hc        1 MOL      0.147102
    140 N12        -5.6780   -2.2560   -1.0430 n         1 MOL     -0.349248
    141 C43        -6.9850   -2.5860   -0.5020 c3        1 MOL     -0.034590
    142 C44        -7.2570   -2.0050    0.8370 c         1 MOL      0.513278
    143 O21        -8.4160   -1.8600    1.2800 o         1 MOL     -0.569241
    144 C45        -8.0560   -2.2040   -1.5480 c3        1 MOL      0.463177
    145 C46        -8.1340   -0.6790   -1.8360 c3        1 MOL      0.105975
    146 C47        -9.5430   -0.4710   -2.5030 c3        1 MOL     -0.111529
    147 C48        -9.5400    0.9830   -3.0820 c3        1 MOL      0.098276
    148 N13       -10.5590    1.2070   -4.1470 n4        1 MOL     -0.343687
    149 H67        -5.4680   -1.2760   -1.1170 hn        1 MOL      0.246904
    150 H68        -6.8860   -3.6680   -0.3810 h1        1 MOL      0.104954
    151 H69        -9.0020   -2.6440   -1.2210 hc        1 MOL     -0.151936
    152 H70        -7.8390   -2.6880   -2.4920 hc        1 MOL     -0.151936
    153 H71        -7.4420   -0.4260   -2.6350 hc        1 MOL     -0.037976
    154 H72        -7.8690   -0.0830   -0.9520 hc        1 MOL     -0.037976
    155 H73       -10.3350   -0.5510   -1.7650 hc        1 MOL      0.047721
    156 H74        -9.6520   -1.1940   -3.3100 hc        1 MOL      0.047721
    157 H75        -8.5590    1.0960   -3.5520 hx        1 MOL      0.068732
    158 H76        -9.4040    1.7470   -2.3080 hx        1 MOL      0.068732
    159 H77       -10.5470    2.1690   -4.4470 hn        1 MOL      0.262039
    160 H78       -10.3950    0.6450   -4.9700 hn        1 MOL      0.262039
    161 H79       -11.5270    1.1050   -3.8630 hn        1 MOL      0.262039
    162 N14        -6.2230   -1.5760    1.4500 n         1 MOL     -0.250799
    163 C49        -6.2480   -0.9950    2.7610 c3        1 MOL     -0.311828
    164 C50        -6.5600    0.5090    2.7160 c         1 MOL      0.693468
    165 O22        -6.0740    1.2600    1.8080 o         1 MOL     -0.573875
    166 C51        -4.8770   -1.3770    3.3400 c3        1 MOL     -0.047545
    167 C52        -4.7600   -2.8500    3.6720 c3        1 MOL      0.249870
    168 C53        -3.2630   -3.1600    3.9740 c         1 MOL      0.738635
    169 O23        -2.7460   -4.0910    3.3190 o         1 MOL     -0.817804
    170 O24        -2.5730   -2.4250    4.7450 o         1 MOL     -0.817804
    171 H80        -5.3720   -1.7390    0.9300 hn        1 MOL      0.172559
    172 H81        -7.0890   -1.4060    3.3270 h1        1 MOL      0.107507
    173 H82        -4.5950   -0.7860    4.2100 hc        1 MOL      0.064342
    174 H83        -4.1190   -1.1440    2.5930 hc        1 MOL      0.064342
    175 H84        -5.0810   -3.4830    2.8560 hc        1 MOL     -0.064725
    176 H85        -5.3260   -3.1090    4.5720 hc        1 MOL     -0.064725
    177 N15        -7.3740    0.9830    3.6800 n         1 MOL     -0.434455
    178 C54        -7.8910    2.3960    3.6230 c3        1 MOL     -0.251594
    179 H86        -7.9360    2.8070    4.6310 h1        1 MOL      0.131283
    180 H87        -7.2230    3.0040    3.0140 h1        1 MOL      0.131283
    181 H88        -8.8890    2.4010    3.1840 h1        1 MOL      0.131283
    182 H89        -7.5060    0.4350    4.5190 hn        1 MOL      0.309177
    183 Ca1        -0.2970   -1.4420    4.6440 Ca        1 MOL      1.802172
    184 O25        -1.7810    0.7380    4.2460 oh        1 MOL     -0.931462
    185 H90        -1.2940    1.4220    4.7100 ho        1 MOL      0.451665
    186 H91        -2.2670    1.2100    3.5620 ho        1 MOL      0.451665
    187 O26        -0.1060   -4.0210    4.4530 oh        1 MOL     -0.931462
    188 H92         0.1620   -4.7910    4.9610 ho        1 MOL      0.451665
    189 H93        -1.0480   -4.1670    4.2860 ho        1 MOL      0.451665
    190 O27         2.2710   -1.7640    5.6110 oh        1 MOL     -0.931462
    191 H94         2.9570   -2.4240    5.5060 ho        1 MOL      0.451665
    192 H95         2.7410   -0.9790    5.8790 ho        1 MOL      0.451665
@<TRIPOS>BOND
     1    1    2 1   
     2    1    4 1   
     3    1    5 1   
     4    1    6 1   
     5    2    3 2   
     6    2    7 1   
     7    7    8 1   
     8    7   15 1   
     9    8    9 1   
    10    8   11 1   
    11    8   16 1   
    12    9   10 2   
    13    9   19 1   
    14   11   12 1   
    15   11   17 1   
    16   11   18 1   
    17   12   13 1   
    18   12   14 1   
    19   19   20 1   
    20   19   28 1   
    21   20   21 1   
    22   20   23 1   
    23   20   29 1   
    24   21   22 2   
    25   21   41 1   
    26   23   24 1   
    27   23   30 1   
    28   23   31 1   
    29   24   25 1   
    30   24   32 1   
    31   24   33 1   
    32   25   26 1   
    33   25   34 1   
    34   25   35 1   
    35   26   27 1   
    36   26   36 1   
    37   26   37 1   
    38   27   38 1   
    39   27   39 1   
    40   27   40 1   
    41   41   42 1   
    42   41   49 1   
    43   42   43 1   
    44   42   45 1   
    45   42   50 1   
    46   43   44 2   
    47   43   53 1   
    48   45   46 1   
    49   45   51 1   
    50   45   52 1   
    51   46   47 1   
    52   46   48 1   
    53   53   54 1   
    54   53   57 1   
    55   54   55 1   
    56   54   58 1   
    57   54   59 1   
    58   55   56 2   
    59   55   60 1   
    60   60   61 1   
    61   60   68 1   
    62   61   62 1   
    63   61   64 1   
    64   61   69 1   
    65   62   63 2   
    66   62   72 1   
    67   64   65 1   
    68   64   70 1   
    69   64   71 1   
    70   65   66 1   
    71   65   67 1   
    72   72   73 1   
    73   72   76 1   
    74   73   74 1   
    75   73   77 1   
    76   73   78 1   
    77   74   75 2   
    78   74   79 1   
    79   79   80 1   
    80   79   86 1   
    81   80   81 1   
    82   80   83 1   
    83   80   87 1   
    84   81   82 2   
    85   81   93 1   
    86   83   84 1   
    87   83   85 1   
    88   83   88 1   
    89   84   90 1   
    90   84   91 1   
    91   84   92 1   
    92   85   89 1   
    93   93   94 1   
    94   93  101 1   
    95   94   95 1   
    96   94   97 1   
    97   94  102 1   
    98   95   96 2   
    99   95  112 1   
   100   97   98 1   
   101   97   99 1   
   102   97  103 1   
   103   98  100 1   
   104   98  104 1   
   105   98  105 1   
   106   99  106 1   
   107   99  107 1   
   108   99  108 1   
   109  100  109 1   
   110  100  110 1   
   111  100  111 1   
   112  112  113 1   
   113  112  119 1   
   114  113  114 1   
   115  113  116 1   
   116  113  120 1   
   117  114  115 2   
   118  114  126 1   
   119  116  117 1   
   120  116  118 1   
   121  116  121 1   
   122  117  123 1   
   123  117  124 1   
   124  117  125 1   
   125  118  122 1   
   126  126  127 1   
   127  126  133 1   
   128  127  128 1   
   129  127  130 1   
   130  127  134 1   
   131  128  129 2   
   132  128  140 1   
   133  130  131 1   
   134  130  132 1   
   135  130  135 1   
   136  131  137 1   
   137  131  138 1   
   138  131  139 1   
   139  132  136 1   
   140  140  141 1   
   141  140  149 1   
   142  141  142 1   
   143  141  144 1   
   144  141  150 1   
   145  142  143 2   
   146  142  162 1   
   147  144  145 1   
   148  144  151 1   
   149  144  152 1   
   150  145  146 1   
   151  145  153 1   
   152  145  154 1   
   153  146  147 1   
   154  146  155 1   
   155  146  156 1   
   156  147  148 1   
   157  147  157 1   
   158  147  158 1   
   159  148  159 1   
   160  148  160 1   
   161  148  161 1   
   162  162  163 1   
   163  162  171 1   
   164  163  164 1   
   165  163  166 1   
   166  163  172 1   
   167  164  165 2   
   168  164  177 1   
   169  166  167 1   
   170  166  173 1   
   171  166  174 1   
   172  167  168 1   
   173  167  175 1   
   174  167  176 1   
   175  168  169 1   
   176  168  170 1   
   177  177  178 1   
   178  177  182 1   
   179  178  179 1   
   180  178  180 1   
   181  178  181 1   
   182  184  185 1   
   183  184  186 1   
   184  187  188 1   
   185  187  189 1   
   186  190  191 1   
   187  190  192 1   
@<TRIPOS>SUBSTRUCTURE
     1 MOL         1 TEMP              0 ****  ****    0 ROOT
