@<TRIPOS>MOLECULE
MOL
  184   179     1     0     0
SMALL
resp


@<TRIPOS>ATOM
      1 C1          5.6240    5.8800   -3.8540 c3        1 MOL     -0.251286
      2 C2          5.8330    4.3170   -3.6540 c         1 MOL      0.620109
      3 O1          5.2060    3.4540   -4.3110 o         1 MOL     -0.564630
      4 H1          5.8920    6.1540   -4.8740 hc        1 MOL      0.064339
      5 H2          4.5800    6.1340   -3.6710 hc        1 MOL      0.064339
      6 H3          6.2590    6.4240   -3.1540 hc        1 MOL      0.064339
      7 N1          6.6060    3.8120   -2.6470 n         1 MOL     -0.413582
      8 C3          7.6840    4.5100   -2.0020 c3        1 MOL      0.038535
      9 C4          7.3850    4.8250   -0.5600 c         1 MOL      0.561892
     10 O2          6.2730    5.1900   -0.2310 o         1 MOL     -0.492892
     11 C5          8.9340    3.6560   -2.2000 c3        1 MOL     -0.478237
     12 C6          8.7920    2.2620   -1.5680 c         1 MOL      0.808833
     13 O3          8.8740    2.1520   -0.3440 o         1 MOL     -0.698658
     14 O4          8.7830    1.2350   -2.2840 o         1 MOL     -0.698658
     15 H4          6.3690    2.8970   -2.3140 hn        1 MOL      0.248077
     16 H5          7.8980    5.4810   -2.4430 h1        1 MOL      0.123941
     17 H6          9.7500    4.2920   -1.8350 hc        1 MOL      0.103895
     18 H7          9.1480    3.6020   -3.2700 hc        1 MOL      0.103895
     19 N2          8.4110    4.7810    0.3230 n         1 MOL     -0.666094
     20 C7          8.2010    4.8520    1.7860 c3        1 MOL      0.338269
     21 C8          7.1240    3.9840    2.3100 c         1 MOL      0.404335
     22 O5          6.6480    4.2970    3.3880 o         1 MOL     -0.552097
     23 C9          8.3050    6.3340    2.2230 c3        1 MOL     -0.212283
     24 H8          9.2470    4.2720    0.0470 hn        1 MOL      0.330870
     25 H9          9.0860    4.4400    2.2760 h1        1 MOL      0.010267
     26 H10         7.5550    6.8910    1.6670 hc        1 MOL      0.053239
     27 H11         8.0600    6.5200    3.2670 hc        1 MOL      0.053239
     28 H12         9.2520    6.8000    1.9640 hc        1 MOL      0.053239
     29 N3          6.8350    2.8000    1.7470 n         1 MOL     -0.166868
     30 C10         6.0410    1.7350    2.3460 c3        1 MOL      0.110409
     31 C11         6.8570    0.4650    2.5480 c         1 MOL      0.239334
     32 O6          7.9390    0.2780    1.9530 o         1 MOL     -0.484337
     33 C12         4.7900    1.4240    1.4550 c3        1 MOL     -0.146389
     34 C13         5.0030    1.4540   -0.0930 c         1 MOL      0.594283
     35 O7          5.8880    0.7320   -0.5480 o         1 MOL     -0.599982
     36 O8          4.1370    1.9330   -0.8560 o         1 MOL     -0.599982
     37 H13         7.3470    2.5500    0.9060 hn        1 MOL      0.091280
     38 H14         5.6100    2.1420    3.2560 h1        1 MOL      0.053555
     39 H15         4.0620    2.1870    1.7420 hc        1 MOL      0.039416
     40 H16         4.4320    0.4660    1.8140 hc        1 MOL      0.039416
     41 N4          6.2590   -0.4620    3.3340 n         1 MOL     -0.195959
     42 C14         6.8610   -1.7260    3.7730 c3        1 MOL     -0.232296
     43 C15         5.9280   -2.9290    4.0910 c         1 MOL      0.557684
     44 O9          6.3740   -3.9110    4.6950 o         1 MOL     -0.555681
     45 H17         5.4670   -0.1150    3.8640 hn        1 MOL      0.252568
     46 H18         7.1640   -1.5690    4.8060 h1        1 MOL      0.111015
     47 H19         7.6240   -2.0660    3.0730 h1        1 MOL      0.111015
     48 N5          4.7250   -2.8410    3.5920 n         1 MOL     -0.524736
     49 C16         3.7850   -3.9710    3.2430 c3        1 MOL      0.410077
     50 C17         2.9500   -3.4990    2.0270 c         1 MOL      0.224212
     51 O10         2.9720   -2.2910    1.7240 o         1 MOL     -0.445978
     52 C18         2.9870   -4.2960    4.4940 c3        1 MOL     -0.082847
     53 C19         1.7730   -5.1670    4.3310 c         1 MOL      0.475915
     54 N6          0.6680   -4.8430    4.9960 n         1 MOL     -0.661562
     55 O11         1.7070   -6.1740    3.5950 o         1 MOL     -0.479773
     56 H20         4.5460   -1.9120    3.2310 hn        1 MOL      0.259097
     57 H21         4.2620   -4.9080    2.9490 h1        1 MOL     -0.036919
     58 H22         2.6210   -3.3840    4.9620 hc        1 MOL      0.037663
     59 H23         3.6920   -4.7320    5.2050 hc        1 MOL      0.037663
     60 H24         0.6960   -4.0670    5.6440 hn        1 MOL      0.346680
     61 H25        -0.1090   -5.4810    5.0060 hn        1 MOL      0.346680
     62 N7          2.2370   -4.4230    1.3780 n         1 MOL     -0.083950
     63 C20         1.5170   -4.1590    0.1680 c3        1 MOL     -0.210325
     64 C21         1.1460   -5.5570   -0.5100 c         1 MOL      0.595438
     65 O12         1.3540   -6.6510    0.1250 o         1 MOL     -0.544310
     66 H26         2.2550   -5.3730    1.7180 hn        1 MOL      0.147249
     67 H27         2.0170   -3.5730   -0.6010 h1        1 MOL      0.115117
     68 H28         0.5270   -3.7350    0.3470 h1        1 MOL      0.115117
     69 N8          0.5900   -5.6320   -1.7160 n         1 MOL     -0.576159
     70 C22         0.1670   -4.5460   -2.6460 c3        1 MOL      0.057759
     71 C23        -1.0060   -3.6130   -2.2500 c         1 MOL      0.552923
     72 O13        -1.9150   -3.9970   -1.4690 o         1 MOL     -0.465745
     73 C24        -0.0710   -5.1050   -4.0770 c3        1 MOL      0.298758
     74 C25         1.1720   -5.7280   -4.7140 c3        1 MOL     -0.361739
     75 O14        -1.0510   -6.1570   -4.1280 oh        1 MOL     -0.577591
     76 H29         0.2780   -6.5660   -1.9540 hn        1 MOL      0.330635
     77 H30         1.0350   -3.9000   -2.7770 h1        1 MOL      0.063463
     78 H31        -0.5400   -4.3230   -4.6570 h1        1 MOL      0.108892
     79 H32        -0.6710   -6.9750   -3.8160 ho        1 MOL      0.378537
     80 H33         1.0800   -6.0640   -5.7490 hc        1 MOL      0.079440
     81 H34         1.9710   -4.9880   -4.7610 hc        1 MOL      0.079440
     82 H35         1.5150   -6.5470   -4.0890 hc        1 MOL      0.079440
     83 N9         -1.0440   -2.4090   -2.8450 n         1 MOL     -0.521233
     84 C26        -2.0940   -1.4410   -2.6870 c3        1 MOL     -0.248195
     85 C27        -3.3420   -2.0710   -3.2650 c         1 MOL      0.892461
     86 O15        -3.3030   -2.4760   -4.4200 o         1 MOL     -0.651814
     87 C28        -1.7730   -0.0600   -3.3370 c3        1 MOL      0.200934
     88 C29        -0.3610    0.4160   -2.9840 c3        1 MOL     -0.321957
     89 C30        -2.8450    1.0450   -3.0340 c3        1 MOL     -0.341542
     90 C31         0.0600    1.7390   -3.5050 c3        1 MOL     -0.140484
     91 H36        -0.2240   -2.0750   -3.3200 hn        1 MOL      0.222132
     92 H37        -2.2250   -1.3100   -1.6110 h1        1 MOL      0.131742
     93 H38        -1.7190   -0.2750   -4.4060 hc        1 MOL      0.032884
     94 H39         0.3130   -0.2910   -3.4620 hc        1 MOL      0.140044
     95 H40        -0.3140    0.6000   -1.9120 hc        1 MOL      0.140044
     96 H41        -2.7960    1.3570   -1.9910 hc        1 MOL      0.098476
     97 H42        -2.6050    1.9730   -3.5420 hc        1 MOL      0.098476
     98 H43        -3.8740    0.8200   -3.3190 hc        1 MOL      0.098476
     99 H44        -0.1680    1.8180   -4.5620 hc        1 MOL      0.055259
    100 H45        -0.5930    2.4650   -3.0270 hc        1 MOL      0.055259
    101 H46         1.1140    1.9750   -3.3570 hc        1 MOL      0.055259
    102 N10        -4.5300   -2.0950   -2.6420 n         1 MOL     -0.723618
    103 C32        -4.8450   -1.8930   -1.2330 c3        1 MOL      0.152536
    104 C33        -6.0710   -0.9590   -1.0750 c         1 MOL      0.497945
    105 O16        -6.5490   -0.3500   -2.0120 o         1 MOL     -0.495212
    106 C34        -5.2670   -3.2490   -0.7550 c3        1 MOL      0.055903
    107 C35        -6.2940   -3.9900   -1.5680 c         1 MOL      0.645180
    108 O17        -7.0220   -3.3800   -2.3720 o         1 MOL     -0.666967
    109 O18        -6.5330   -5.1810   -1.1400 o         1 MOL     -0.666967
    110 H47        -5.2520   -2.4900   -3.2300 hn        1 MOL      0.376907
    111 H48        -4.0640   -1.4360   -0.6280 h1        1 MOL      0.027204
    112 H49        -5.5770   -3.1820    0.2880 hc        1 MOL     -0.037944
    113 H50        -4.3720   -3.8700   -0.7030 hc        1 MOL     -0.037944
    114 N11        -6.6000   -0.8180    0.1500 n         1 MOL     -0.549575
    115 C36        -7.9620   -0.2770    0.3430 c3        1 MOL      0.404351
    116 C37        -8.1160    0.4500    1.6710 c         1 MOL      0.098634
    117 O19        -7.6630   -0.1390    2.6700 o         1 MOL     -0.471062
    118 C38        -8.9200   -1.4960    0.2630 c3        1 MOL     -0.234086
    119 C39       -10.3480   -1.1250    0.5360 ca        1 MOL      0.130696
    120 C40       -11.1060   -1.7060    1.5960 ca        1 MOL     -0.201901
    121 C41       -11.0190   -0.2600   -0.4190 ca        1 MOL     -0.201901
    122 C42       -12.4390   -1.3210    1.6940 ca        1 MOL     -0.060266
    123 C43       -12.3600   -0.0590   -0.3090 ca        1 MOL     -0.060266
    124 C44       -13.0680   -0.5710    0.7210 ca        1 MOL     -0.153561
    125 H51        -6.2560   -1.4190    0.8800 hn        1 MOL      0.319318
    126 H52        -8.1550    0.4070   -0.4840 h1        1 MOL     -0.039169
    127 H53        -8.5810   -2.1750    1.0480 hc        1 MOL      0.098572
    128 H54        -8.7690   -2.0020   -0.6930 hc        1 MOL      0.098572
    129 H55       -10.6350   -2.2470    2.4020 ha        1 MOL      0.134560
    130 H56       -10.5370    0.2370   -1.2510 ha        1 MOL      0.134560
    131 H57       -13.0600   -1.6040    2.5330 ha        1 MOL      0.076452
    132 H58       -12.8110    0.5680   -1.0620 ha        1 MOL      0.076452
    133 H59       -14.1400   -0.4330    0.8180 ha        1 MOL      0.077445
    134 N12        -8.7970    1.5980    1.8620 n         1 MOL      0.362192
    135 C45        -9.3010    2.5150    0.8240 c3        1 MOL     -0.033647
    136 C46        -8.2660    3.4260    0.1040 c         1 MOL      0.443021
    137 O20        -8.3520    3.5730   -1.1420 o         1 MOL     -0.610751
    138 C47       -10.3960    3.3570    1.5140 c3        1 MOL     -0.209659
    139 C48       -10.6650    2.6190    2.8260 c3        1 MOL      0.356377
    140 C49        -9.4100    1.9030    3.1560 c3        1 MOL     -0.436991
    141 H60        -9.9120    1.9770    0.1020 h1        1 MOL      0.077662
    142 H61       -10.0750    4.3470    1.8440 hc        1 MOL      0.050886
    143 H62       -11.2780    3.3410    0.8780 hc        1 MOL      0.050886
    144 H63       -11.0510    3.3350    3.5540 hc        1 MOL     -0.094368
    145 H64       -11.4040    1.8360    2.7080 hc        1 MOL     -0.094368
    146 H65        -8.7560    2.5700    3.7190 h1        1 MOL      0.133980
    147 H66        -9.5710    0.9840    3.7230 h1        1 MOL      0.133980
    148 N13        -7.1750    3.6990    0.7650 n         1 MOL     -0.120995
    149 C50        -6.1220    4.6380    0.2240 c3        1 MOL     -0.017047
    150 C51        -6.6910    6.0920    0.1330 c         1 MOL      0.424152
    151 O21        -6.9500    6.6710    1.1590 o         1 MOL     -0.565008
    152 C52        -4.9060    4.4840    1.1550 c3        1 MOL      0.089698
    153 C53        -4.3230    3.0640    1.4430 c3        1 MOL     -0.231927
    154 C54        -4.9030    2.2820    2.6720 c         1 MOL      0.766310
    155 O22        -4.1920    1.4120    3.2190 o         1 MOL     -0.700615
    156 O23        -6.0460    2.5560    3.1510 o         1 MOL     -0.700615
    157 H67        -6.9810    3.2660    1.6650 hn        1 MOL      0.068808
    158 H68        -5.8590    4.2500   -0.7530 h1        1 MOL      0.102382
    159 H69        -5.0830    4.8810    2.1600 hc        1 MOL     -0.001473
    160 H70        -4.1500    5.1430    0.7360 hc        1 MOL     -0.001473
    161 H71        -3.2700    3.2490    1.6710 hc        1 MOL      0.020614
    162 H72        -4.3580    2.5460    0.4880 hc        1 MOL      0.020614
    163 N14        -6.8620    6.7830   -0.9910 n         1 MOL     -0.347385
    164 C55        -6.8480    6.2820   -2.3470 c3        1 MOL     -0.070521
    165 H73        -7.8030    5.8050   -2.5670 h1        1 MOL      0.056010
    166 H74        -6.6880    7.1090   -3.0390 h1        1 MOL      0.056010
    167 H75        -6.0450    5.5540   -2.4580 h1        1 MOL      0.056010
    168 H76        -7.2650    7.6870   -0.7870 hn        1 MOL      0.270887
    169 Ca1         8.1960   -0.5410   -0.4380 Ca        1 MOL      1.720584
    170 O24         6.6330   -1.2910   -2.6550 oh        1 MOL     -0.800646
    171 H77         5.9370   -0.6660   -2.8430 ho        1 MOL      0.385366
    172 H78         6.6360   -1.8900   -3.4040 ho        1 MOL      0.385366
    173 O25         9.0850   -3.0860    0.3780 oh        1 MOL     -0.800646
    174 H79         8.6670   -3.7960   -0.1050 ho        1 MOL      0.385366
    175 H80         9.6970   -3.5370    0.9650 ho        1 MOL      0.385366
    176 O26         6.2520   -2.2050    0.3160 oh        1 MOL     -0.800646
    177 H81         6.2330   -3.1500    0.4750 ho        1 MOL      0.385366
    178 H82         5.3390   -1.9530    0.2450 ho        1 MOL      0.385366
    179 O27         9.6830   -1.7310   -2.2480 oh        1 MOL     -0.800646
    180 H83         9.4860   -2.6620   -2.3620 ho        1 MOL      0.385366
    181 H84        10.3730   -1.5530   -2.8780 ho        1 MOL      0.385366
    182 O28        10.6320   -0.6260    0.4090 oh        1 MOL     -0.800646
    183 H85        10.8410   -0.4500    1.3290 ho        1 MOL      0.385366
    184 H86        10.8590   -1.5510    0.2880 ho        1 MOL      0.385366
@<TRIPOS>BOND
     1    1    2 1   
     2    1    4 1   
     3    1    5 1   
     4    1    6 1   
     5    2    3 2   
     6    2    7 1   
     7    7    8 1   
     8    7   15 1   
     9    8    9 1   
    10    8   11 1   
    11    8   16 1   
    12    9   10 2   
    13    9   19 1   
    14   11   12 1   
    15   11   17 1   
    16   11   18 1   
    17   12   13 1   
    18   12   14 1   
    19   19   20 1   
    20   19   24 1   
    21   20   21 1   
    22   20   23 1   
    23   20   25 1   
    24   21   22 2   
    25   21   29 1   
    26   23   26 1   
    27   23   27 1   
    28   23   28 1   
    29   29   30 1   
    30   29   37 1   
    31   30   31 1   
    32   30   33 1   
    33   30   38 1   
    34   31   32 2   
    35   31   41 1   
    36   33   34 1   
    37   33   39 1   
    38   33   40 1   
    39   34   35 1   
    40   34   36 1   
    41   41   42 1   
    42   41   45 1   
    43   42   43 1   
    44   42   46 1   
    45   42   47 1   
    46   43   44 2   
    47   43   48 1   
    48   48   49 1   
    49   48   56 1   
    50   49   50 1   
    51   49   52 1   
    52   49   57 1   
    53   50   51 2   
    54   50   62 1   
    55   52   53 1   
    56   52   58 1   
    57   52   59 1   
    58   53   54 1   
    59   53   55 2   
    60   54   60 1   
    61   54   61 1   
    62   62   63 1   
    63   62   66 1   
    64   63   64 1   
    65   63   67 1   
    66   63   68 1   
    67   64   65 2   
    68   64   69 1   
    69   69   70 1   
    70   69   76 1   
    71   70   71 1   
    72   70   73 1   
    73   70   77 1   
    74   71   72 2   
    75   71   83 1   
    76   73   74 1   
    77   73   75 1   
    78   73   78 1   
    79   74   80 1   
    80   74   81 1   
    81   74   82 1   
    82   75   79 1   
    83   83   84 1   
    84   83   91 1   
    85   84   85 1   
    86   84   87 1   
    87   84   92 1   
    88   85   86 2   
    89   85  102 1   
    90   87   88 1   
    91   87   89 1   
    92   87   93 1   
    93   88   90 1   
    94   88   94 1   
    95   88   95 1   
    96   89   96 1   
    97   89   97 1   
    98   89   98 1   
    99   90   99 1   
   100   90  100 1   
   101   90  101 1   
   102  102  103 1   
   103  102  110 1   
   104  103  104 1   
   105  103  106 1   
   106  103  111 1   
   107  104  105 2   
   108  104  114 1   
   109  106  107 1   
   110  106  112 1   
   111  106  113 1   
   112  107  108 1   
   113  107  109 1   
   114  114  115 1   
   115  114  125 1   
   116  115  116 1   
   117  115  118 1   
   118  115  126 1   
   119  116  117 2   
   120  116  134 1   
   121  118  119 1   
   122  118  127 1   
   123  118  128 1   
   124  119  120 ar  
   125  119  121 ar  
   126  120  122 ar  
   127  120  129 1   
   128  121  123 ar  
   129  121  130 1   
   130  122  124 ar  
   131  122  131 1   
   132  123  124 ar  
   133  123  132 1   
   134  124  133 1   
   135  134  135 1   
   136  134  140 1   
   137  135  136 1   
   138  135  138 1   
   139  135  141 1   
   140  136  137 2   
   141  136  148 1   
   142  138  139 1   
   143  138  142 1   
   144  138  143 1   
   145  139  140 1   
   146  139  144 1   
   147  139  145 1   
   148  140  146 1   
   149  140  147 1   
   150  148  149 1   
   151  148  157 1   
   152  149  150 1   
   153  149  152 1   
   154  149  158 1   
   155  150  151 2   
   156  150  163 1   
   157  152  153 1   
   158  152  159 1   
   159  152  160 1   
   160  153  154 1   
   161  153  161 1   
   162  153  162 1   
   163  154  155 1   
   164  154  156 1   
   165  163  164 1   
   166  163  168 1   
   167  164  165 1   
   168  164  166 1   
   169  164  167 1   
   170  170  171 1   
   171  170  172 1   
   172  173  174 1   
   173  173  175 1   
   174  176  177 1   
   175  176  178 1   
   176  179  180 1   
   177  179  181 1   
   178  182  183 1   
   179  182  184 1   
@<TRIPOS>SUBSTRUCTURE
     1 MOL         1 TEMP              0 ****  ****    0 ROOT
