@<TRIPOS>MOLECULE
MOL
  181   177     1     0     0
SMALL
resp


@<TRIPOS>ATOM
      1 C1          6.2940    4.3950    4.7930 c3        1 MOL     -0.304305
      2 C2          5.6910    3.1630    4.0320 c         1 MOL      0.650111
      3 O1          4.5280    2.9210    4.2410 o         1 MOL     -0.518157
      4 H1          6.6330    4.0800    5.7800 hc        1 MOL      0.076901
      5 H2          7.1380    4.7930    4.2290 hc        1 MOL      0.076901
      6 H3          5.5320    5.1660    4.9000 hc        1 MOL      0.076901
      7 N1          6.4520    2.3690    3.1870 n         1 MOL     -0.438646
      8 C3          7.9150    2.2570    3.0280 c3        1 MOL      0.075099
      9 C4          8.3810    0.7880    3.1830 c         1 MOL      0.455507
     10 O2          7.7420   -0.0020    3.7840 o         1 MOL     -0.440859
     11 C5          8.3240    2.8860    1.7010 c3        1 MOL     -0.231994
     12 C6          7.6330    2.3370    0.4510 c         1 MOL      0.679397
     13 O3          6.7450    2.9740   -0.1770 o         1 MOL     -0.728604
     14 O4          7.7560    1.1250    0.1860 o         1 MOL     -0.728604
     15 H4          5.9460    1.6000    2.7760 hn        1 MOL      0.247008
     16 H5          8.3150    2.8950    3.8200 h1        1 MOL      0.063153
     17 H6          9.3870    2.6580    1.5760 hc        1 MOL      0.036063
     18 H7          8.1780    3.9620    1.7940 hc        1 MOL      0.036063
     19 N2          9.3600    0.2990    2.4080 n         1 MOL     -0.579078
     20 C7          9.7870   -1.1070    2.4640 c3        1 MOL      0.321569
     21 C8          8.7090   -2.1300    2.0950 c         1 MOL      0.291504
     22 O5          8.7210   -3.2790    2.5370 o         1 MOL     -0.526455
     23 C9         10.6940   -1.3320    3.6910 c3        1 MOL     -0.200804
     24 H8          9.7920    0.9390    1.7560 hn        1 MOL      0.332359
     25 H9         10.4570   -1.3090    1.6170 h1        1 MOL      0.010710
     26 H10        11.0800   -2.3510    3.7630 hc        1 MOL      0.051805
     27 H11        11.5340   -0.6510    3.5600 hc        1 MOL      0.051805
     28 H12        10.2870   -1.1000    4.6760 hc        1 MOL      0.051805
     29 N3          7.6540   -1.7330    1.3180 n         1 MOL     -0.086797
     30 C10         6.5330   -2.6380    0.9830 c3        1 MOL      0.141681
     31 C11         6.4540   -2.6470   -0.5600 c         1 MOL      0.193596
     32 O6          6.6390   -1.6530   -1.2220 o         1 MOL     -0.446075
     33 C12         5.2480   -2.3020    1.7990 c3        1 MOL     -0.030365
     34 C13         4.8110   -0.8510    1.8680 c         1 MOL      0.599190
     35 O7          4.0490   -0.4870    2.8030 o         1 MOL     -0.638423
     36 O8          5.0860   -0.0800    0.9050 o         1 MOL     -0.638423
     37 H13         7.6360   -0.7830    0.9740 hn        1 MOL      0.121409
     38 H14         6.8060   -3.6480    1.2760 h1        1 MOL      0.004726
     39 H15         5.3500   -2.6110    2.8310 hc        1 MOL      0.018037
     40 H16         4.4400   -2.8360    1.2930 hc        1 MOL      0.018037
     41 N4          6.3820   -3.8360   -1.2240 n         1 MOL     -0.207172
     42 C14         6.0460   -3.9630   -2.6920 c3        1 MOL     -0.410193
     43 C15         4.6720   -3.4930   -3.0670 c         1 MOL      0.679849
     44 O9          4.4770   -3.1880   -4.2410 o         1 MOL     -0.600307
     45 H17         6.4100   -4.7280   -0.7570 hn        1 MOL      0.243672
     46 H18         6.1800   -5.0040   -2.9910 h1        1 MOL      0.179728
     47 H19         6.8120   -3.4010   -3.2300 h1        1 MOL      0.179728
     48 N5          3.7530   -3.4750   -2.1050 n         1 MOL     -0.488618
     49 C16         2.4060   -2.8360   -2.3010 c3        1 MOL      0.181142
     50 C17         2.6060   -1.3500   -2.3750 c         1 MOL      0.600601
     51 O10         3.5160   -0.7990   -1.7800 o         1 MOL     -0.585677
     52 C18         1.4550   -3.2450   -1.0980 c3        1 MOL     -0.153731
     53 C19         0.9170   -4.6910   -1.3450 c         1 MOL      0.583289
     54 N6          0.9370   -5.5420   -0.3480 n         1 MOL     -0.772837
     55 O11         0.4110   -5.0230   -2.3820 o         1 MOL     -0.502182
     56 H20         4.0080   -3.7180   -1.1610 hn        1 MOL      0.265607
     57 H21         1.8980   -3.2360   -3.1770 h1        1 MOL      0.057726
     58 H22         0.5400   -2.6520   -1.0640 hc        1 MOL      0.046552
     59 H23         1.9100   -3.2000   -0.1130 hc        1 MOL      0.046552
     60 H24         1.3950   -5.3300    0.5330 hn        1 MOL      0.372541
     61 H25         0.5710   -6.4650   -0.5250 hn        1 MOL      0.372541
     62 N7          1.6430   -0.7380   -3.0600 n         1 MOL     -0.724669
     63 C20         1.2360    0.6400   -2.8290 c3        1 MOL      0.361546
     64 C21         0.6020    1.2680   -4.0500 c         1 MOL      0.618495
     65 O12         0.4400    0.5820   -5.0460 o         1 MOL     -0.537028
     66 H26         1.0050   -1.2780   -3.6240 hn        1 MOL      0.352104
     67 H27         2.0310    1.2490   -2.4050 h1        1 MOL     -0.010761
     68 H28         0.4640    0.4490   -2.0890 h1        1 MOL     -0.010761
     69 N8          0.1500    2.5830   -3.9520 n         1 MOL     -0.718232
     70 C22         0.0080    3.3680   -2.7280 c3        1 MOL      0.071766
     71 C23        -1.2600    3.2070   -1.9150 c         1 MOL      0.531051
     72 O13        -2.2640    3.0800   -2.5890 o         1 MOL     -0.509918
     73 C24         0.2090    4.9010   -2.9600 c3        1 MOL      0.522675
     74 C25         0.3810    5.7700   -1.7570 c3        1 MOL     -0.440309
     75 O14         1.3740    5.0230   -3.7080 oh        1 MOL     -0.641216
     76 H29        -0.1880    3.0550   -4.7760 hn        1 MOL      0.357960
     77 H30         0.8280    3.0400   -2.0930 h1        1 MOL      0.057258
     78 H31        -0.5470    5.2570   -3.6490 h1        1 MOL     -0.036084
     79 H32         1.0830    5.2930   -4.5850 ho        1 MOL      0.363325
     80 H33         1.1510    5.3940   -1.0750 hc        1 MOL      0.121388
     81 H34         0.6580    6.7740   -2.0770 hc        1 MOL      0.121388
     82 H35        -0.6010    5.8110   -1.2830 hc        1 MOL      0.121388
     83 N9         -1.2150    3.2050   -0.5920 n         1 MOL     -0.722064
     84 C26        -2.4080    2.9960    0.2490 c3        1 MOL      0.191238
     85 C27        -3.0090    4.3580    0.7030 c         1 MOL      0.721755
     86 O15        -2.3400    5.0730    1.4250 o         1 MOL     -0.621967
     87 C28        -1.9470    2.1400    1.4700 c3        1 MOL      0.006266
     88 C29        -1.1140    0.8530    1.1180 c3        1 MOL      0.045138
     89 C30        -3.1730    1.7870    2.3710 c3        1 MOL     -0.189816
     90 C31        -1.7190    0.0060    0.0000 c3        1 MOL     -0.777090
     91 H36        -0.3140    3.2960   -0.1460 hn        1 MOL      0.308531
     92 H37        -3.1890    2.4440   -0.2840 h1        1 MOL      0.052177
     93 H38        -1.2640    2.7500    2.0550 hc        1 MOL      0.032703
     94 H39        -0.7680    0.2920    1.9850 hc        1 MOL      0.022058
     95 H40        -0.1240    1.2320    0.8380 hc        1 MOL      0.022058
     96 H41        -3.8410    1.2380    1.7070 hc        1 MOL      0.061838
     97 H42        -2.8910    1.1150    3.1820 hc        1 MOL      0.061838
     98 H43        -3.6330    2.6200    2.9000 hc        1 MOL      0.061838
     99 H44        -2.6960   -0.3630    0.3190 hc        1 MOL      0.247748
    100 H45        -1.8550    0.5510   -0.9340 hc        1 MOL      0.247748
    101 H46        -1.0700   -0.8640   -0.1590 hc        1 MOL      0.247748
    102 N10        -4.2320    4.7780    0.3760 n         1 MOL     -0.585946
    103 C32        -5.4110    4.1270   -0.3170 c3        1 MOL      0.035851
    104 C33        -6.2330    3.1540    0.5710 c         1 MOL      0.624312
    105 O16        -6.3690    3.3070    1.7610 o         1 MOL     -0.528655
    106 C34        -6.3070    5.3390   -0.8420 c3        1 MOL     -0.043894
    107 C35        -6.6700    6.3370    0.2690 c         1 MOL      0.709967
    108 O17        -7.8500    6.2880    0.6640 o         1 MOL     -0.710269
    109 O18        -5.8080    7.1820    0.5100 o         1 MOL     -0.710269
    110 H47        -4.4410    5.6530    0.8400 hn        1 MOL      0.312914
    111 H48        -5.0690    3.4880   -1.1250 h1        1 MOL      0.028367
    112 H49        -7.1050    4.8200   -1.3600 hc        1 MOL     -0.014700
    113 H50        -5.8220    5.8360   -1.6760 hc        1 MOL     -0.014700
    114 N11        -6.9100    2.1640   -0.1130 n         1 MOL     -0.605416
    115 C36        -7.5920    0.9260    0.2770 c3        1 MOL      0.184596
    116 C37        -7.8750    0.1160   -0.9950 c         1 MOL      0.384100
    117 O19        -8.3580    0.7510   -1.9330 o         1 MOL     -0.529829
    118 C38        -8.8430    1.2060    1.1510 c3        1 MOL     -0.104075
    119 C39        -9.4290   -0.0820    1.7100 ca        1 MOL      0.037017
    120 C40       -10.4990   -0.6520    1.0270 ca        1 MOL     -0.192289
    121 C41        -8.9640   -0.6010    2.9250 ca        1 MOL     -0.192289
    122 C42       -11.1420   -1.8110    1.5680 ca        1 MOL     -0.071372
    123 C43        -9.5570   -1.7510    3.4750 ca        1 MOL     -0.071372
    124 C44       -10.6760   -2.2840    2.7860 ca        1 MOL     -0.146121
    125 H51        -6.6260    2.1580   -1.0800 hn        1 MOL      0.313318
    126 H52        -6.8550    0.3590    0.8440 h1        1 MOL      0.003312
    127 H53        -9.6620    1.6820    0.6060 hc        1 MOL      0.091957
    128 H54        -8.6030    1.9460    1.9180 hc        1 MOL      0.091957
    129 H55       -10.7740   -0.1570    0.1090 ha        1 MOL      0.130106
    130 H56        -8.2180   -0.0100    3.4430 ha        1 MOL      0.130106
    131 H57       -12.1000   -2.1570    1.2070 ha        1 MOL      0.096943
    132 H58        -9.2280   -2.1800    4.4150 ha        1 MOL      0.096943
    133 H59       -11.2380   -3.1010    3.2300 ha        1 MOL      0.088359
    134 N12        -7.7820   -1.2320   -1.0400 n         1 MOL     -0.141226
    135 C45        -7.3250   -2.1830    0.0530 c3        1 MOL      0.368551
    136 C46        -5.7650   -2.0860    0.3000 c         1 MOL      0.270745
    137 O20        -5.1250   -1.1250   -0.2030 o         1 MOL     -0.523809
    138 C47        -7.4830   -3.5700   -0.6540 c3        1 MOL      0.047836
    139 C48        -8.5890   -3.4130   -1.6300 c3        1 MOL      0.068818
    140 C49        -8.4260   -1.9610   -2.1840 c3        1 MOL     -0.111435
    141 H60        -7.8420   -2.3080    0.9970 h1        1 MOL     -0.081000
    142 H61        -6.5260   -3.8550   -1.0940 hc        1 MOL      0.002208
    143 H62        -7.7110   -4.3510    0.0790 hc        1 MOL      0.002208
    144 H63        -8.5290   -4.1230   -2.4500 hc        1 MOL     -0.031842
    145 H64        -9.5150   -3.4880   -1.0490 hc        1 MOL     -0.031842
    146 H65        -7.8040   -2.0410   -3.0680 h1        1 MOL      0.077634
    147 H66        -9.3950   -1.5110   -2.4120 h1        1 MOL      0.077634
    148 N13        -5.2610   -3.0940    0.9870 n         1 MOL     -0.469058
    149 C50        -3.7930   -3.1900    1.3010 c3        1 MOL      0.470761
    150 C51        -3.4530   -4.0260    2.6300 c         1 MOL      0.222129
    151 O21        -2.7080   -5.0130    2.6390 o         1 MOL     -0.507347
    152 C52        -2.9620   -3.5740    0.0660 c3        1 MOL      0.017525
    153 C53        -2.9780   -4.9950   -0.5150 c3        1 MOL     -0.012164
    154 C54        -4.3020   -5.5730   -0.7240 c         1 MOL      0.692105
    155 O22        -5.0060   -6.0020    0.1900 o         1 MOL     -0.736534
    156 O23        -4.7480   -5.7180   -1.9070 o         1 MOL     -0.736534
    157 H67        -5.8220   -3.8910    1.2470 hn        1 MOL      0.294405
    158 H68        -3.4490   -2.2010    1.6200 h1        1 MOL     -0.013083
    159 H69        -1.9300   -3.4820    0.4220 hc        1 MOL     -0.012442
    160 H70        -3.0830   -2.8480   -0.7320 hc        1 MOL     -0.012442
    161 H71        -2.3310   -5.6480    0.0740 hc        1 MOL     -0.022528
    162 H72        -2.5050   -4.8740   -1.4880 hc        1 MOL     -0.022528
    163 N14        -3.9270   -3.6700    3.8500 n         1 MOL     -0.289094
    164 C55        -4.7630   -2.5530    4.2870 c3        1 MOL     -0.193583
    165 H73        -4.4210   -2.2030    5.2620 h1        1 MOL      0.088466
    166 H74        -4.6900   -1.7400    3.5650 h1        1 MOL      0.088466
    167 H75        -5.7990   -2.8810    4.3620 h1        1 MOL      0.088466
    168 H76        -3.7150   -4.3910    4.5370 hn        1 MOL      0.280423
    169 Ca1         5.6210    0.8280   -1.5510 Ca        1 MOL      1.787409
    170 O24         3.6600    2.4000   -0.5770 oh        1 MOL     -0.828378
    171 H77         3.3870    3.3170   -0.4630 ho        1 MOL      0.406702
    172 H78         3.6680    2.0390    0.3110 ho        1 MOL      0.406702
    173 O25         4.2950    2.3320   -3.4920 oh        1 MOL     -0.828378
    174 H79         4.3280    3.2850   -3.4520 ho        1 MOL      0.406702
    175 H80         3.6890    2.1410   -4.2060 ho        1 MOL      0.406702
    176 O26         5.4570   -0.5220   -4.0100 oh        1 MOL     -0.828378
    177 H81         5.3720   -1.4640   -4.1720 ho        1 MOL      0.406702
    178 H82         5.0240   -0.1150   -4.7650 ho        1 MOL      0.406702
    179 O27         7.6210    1.4540   -3.2530 oh        1 MOL     -0.828378
    180 H83         7.5830    2.3440   -3.6090 ho        1 MOL      0.406702
    181 H84         8.2280    0.9920   -3.8320 ho        1 MOL      0.406702
@<TRIPOS>BOND
     1    1    2 1   
     2    1    4 1   
     3    1    5 1   
     4    1    6 1   
     5    2    3 2   
     6    2    7 1   
     7    7    8 1   
     8    7   15 1   
     9    8    9 1   
    10    8   11 1   
    11    8   16 1   
    12    9   10 2   
    13    9   19 1   
    14   11   12 1   
    15   11   17 1   
    16   11   18 1   
    17   12   13 1   
    18   12   14 1   
    19   19   20 1   
    20   19   24 1   
    21   20   21 1   
    22   20   23 1   
    23   20   25 1   
    24   21   22 2   
    25   21   29 1   
    26   23   26 1   
    27   23   27 1   
    28   23   28 1   
    29   29   30 1   
    30   29   37 1   
    31   30   31 1   
    32   30   33 1   
    33   30   38 1   
    34   31   32 2   
    35   31   41 1   
    36   33   34 1   
    37   33   39 1   
    38   33   40 1   
    39   34   35 1   
    40   34   36 1   
    41   41   42 1   
    42   41   45 1   
    43   42   43 1   
    44   42   46 1   
    45   42   47 1   
    46   43   44 2   
    47   43   48 1   
    48   48   49 1   
    49   48   56 1   
    50   49   50 1   
    51   49   52 1   
    52   49   57 1   
    53   50   51 2   
    54   50   62 1   
    55   52   53 1   
    56   52   58 1   
    57   52   59 1   
    58   53   54 1   
    59   53   55 2   
    60   54   60 1   
    61   54   61 1   
    62   62   63 1   
    63   62   66 1   
    64   63   64 1   
    65   63   67 1   
    66   63   68 1   
    67   64   65 2   
    68   64   69 1   
    69   69   70 1   
    70   69   76 1   
    71   70   71 1   
    72   70   73 1   
    73   70   77 1   
    74   71   72 2   
    75   71   83 1   
    76   73   74 1   
    77   73   75 1   
    78   73   78 1   
    79   74   80 1   
    80   74   81 1   
    81   74   82 1   
    82   75   79 1   
    83   83   84 1   
    84   83   91 1   
    85   84   85 1   
    86   84   87 1   
    87   84   92 1   
    88   85   86 2   
    89   85  102 1   
    90   87   88 1   
    91   87   89 1   
    92   87   93 1   
    93   88   90 1   
    94   88   94 1   
    95   88   95 1   
    96   89   96 1   
    97   89   97 1   
    98   89   98 1   
    99   90   99 1   
   100   90  100 1   
   101   90  101 1   
   102  102  103 1   
   103  102  110 1   
   104  103  104 1   
   105  103  106 1   
   106  103  111 1   
   107  104  105 2   
   108  104  114 1   
   109  106  107 1   
   110  106  112 1   
   111  106  113 1   
   112  107  108 1   
   113  107  109 1   
   114  114  115 1   
   115  114  125 1   
   116  115  116 1   
   117  115  118 1   
   118  115  126 1   
   119  116  117 2   
   120  116  134 1   
   121  118  119 1   
   122  118  127 1   
   123  118  128 1   
   124  119  120 ar  
   125  119  121 ar  
   126  120  122 ar  
   127  120  129 1   
   128  121  123 ar  
   129  121  130 1   
   130  122  124 ar  
   131  122  131 1   
   132  123  124 ar  
   133  123  132 1   
   134  124  133 1   
   135  134  135 1   
   136  134  140 1   
   137  135  136 1   
   138  135  138 1   
   139  135  141 1   
   140  136  137 2   
   141  136  148 1   
   142  138  139 1   
   143  138  142 1   
   144  138  143 1   
   145  139  140 1   
   146  139  144 1   
   147  139  145 1   
   148  140  146 1   
   149  140  147 1   
   150  148  149 1   
   151  148  157 1   
   152  149  150 1   
   153  149  152 1   
   154  149  158 1   
   155  150  151 2   
   156  150  163 1   
   157  152  153 1   
   158  152  159 1   
   159  152  160 1   
   160  153  154 1   
   161  153  161 1   
   162  153  162 1   
   163  154  155 1   
   164  154  156 1   
   165  163  164 1   
   166  163  168 1   
   167  164  165 1   
   168  164  166 1   
   169  164  167 1   
   170  170  171 1   
   171  170  172 1   
   172  173  174 1   
   173  173  175 1   
   174  176  177 1   
   175  176  178 1   
   176  179  180 1   
   177  179  181 1   
@<TRIPOS>SUBSTRUCTURE
     1 MOL         1 TEMP              0 ****  ****    0 ROOT
