@<TRIPOS>MOLECULE
MOL
  192   187     1     0     0
SMALL
resp


@<TRIPOS>ATOM
      1 C1          4.4620    4.0390   -3.8570 c3        1 MOL     -0.386057
      2 C2          5.1340    3.1800   -2.7060 c         1 MOL      0.878122
      3 O1          4.5140    2.8410   -1.6730 o         1 MOL     -0.669526
      4 H1          3.6530    4.6370   -3.4370 hc        1 MOL      0.093952
      5 H2          5.2070    4.6970   -4.3020 hc        1 MOL      0.093952
      6 H3          4.0620    3.3720   -4.6210 hc        1 MOL      0.093952
      7 N1          6.3320    2.7750   -2.9160 n         1 MOL     -0.790584
      8 C3          7.0540    1.7130   -2.2160 c3        1 MOL      0.408649
      9 C4          6.1650    0.4810   -1.8860 c         1 MOL      0.185418
     10 O2          5.6510    0.2780   -0.7260 o         1 MOL     -0.461575
     11 C5          7.9150    2.2550   -0.9710 c3        1 MOL     -0.088564
     12 C6          7.3410    3.4290   -0.2070 c         1 MOL      0.734580
     13 O3          6.3630    3.3220    0.5200 o         1 MOL     -0.733985
     14 O4          7.9690    4.4680   -0.1820 o         1 MOL     -0.733985
     15 H4          6.7420    3.1460   -3.7550 hn        1 MOL      0.341965
     16 H5          7.8070    1.3430   -2.9030 h1        1 MOL      0.015769
     17 H6          8.8400    2.5120   -1.4720 hc        1 MOL      0.009570
     18 H7          8.0450    1.4430   -0.2560 hc        1 MOL      0.009570
     19 N2          5.7850   -0.2520   -2.9300 n         1 MOL     -0.465581
     20 C7          5.0250   -1.5560   -2.8940 c3        1 MOL      0.244453
     21 C8          5.7550   -2.7710   -2.2760 c         1 MOL      0.302099
     22 O5          5.8470   -3.8460   -2.8630 o         1 MOL     -0.512952
     23 C9          3.5160   -1.3590   -2.3700 c3        1 MOL      0.134939
     24 C10         2.5660   -2.6000   -2.5610 c3        1 MOL     -0.037318
     25 C11         2.8620   -0.1110   -3.0110 c3        1 MOL     -0.136564
     26 C12         2.6590   -3.4970   -3.8390 c3        1 MOL     -0.299592
     27 H8          5.8550    0.1390   -3.8500 hn        1 MOL      0.296174
     28 H9          4.9350   -1.8270   -3.9480 h1        1 MOL     -0.006105
     29 H10         3.6380   -1.1820   -1.2980 hc        1 MOL     -0.073270
     30 H11         1.5530   -2.4450   -2.1870 hc        1 MOL      0.066290
     31 H12         2.9010   -3.2410   -1.7420 hc        1 MOL      0.066290
     32 H13         3.3740    0.8150   -2.7250 hc        1 MOL      0.010948
     33 H14         2.9030   -0.3720   -4.0690 hc        1 MOL      0.010948
     34 H15         1.8370   -0.1400   -2.6510 hc        1 MOL      0.010948
     35 H16         1.8780   -4.2600   -3.8350 hc        1 MOL      0.068632
     36 H17         2.5450   -2.8960   -4.7350 hc        1 MOL      0.068632
     37 H18         3.5780   -4.0670   -3.8690 hc        1 MOL      0.068632
     38 N3          6.1810   -2.4830   -1.0360 n         1 MOL     -0.126011
     39 C13         6.9490   -3.4290   -0.1980 c3        1 MOL     -0.023109
     40 C14         6.0960   -4.6950    0.1750 c         1 MOL      0.601490
     41 O6          6.6180   -5.8170    0.1300 o         1 MOL     -0.577483
     42 C15         7.6320   -2.7290    1.0020 c3        1 MOL     -0.279703
     43 C16         8.3940   -1.4440    0.7110 c         1 MOL      0.802650
     44 O7          8.3460   -0.4370    1.4340 o         1 MOL     -0.729430
     45 O8          9.1650   -1.3820   -0.2680 o         1 MOL     -0.729430
     46 H19         6.0480   -1.5680   -0.6270 hn        1 MOL      0.264405
     47 H20         7.8040   -3.9120   -0.6710 h1        1 MOL      0.065653
     48 H21         8.3460   -3.4100    1.4750 hc        1 MOL      0.072142
     49 H22         6.9670   -2.6060    1.8660 hc        1 MOL      0.072142
     50 N4          4.7840   -4.6000    0.5130 n         1 MOL     -0.596538
     51 C17         4.0940   -3.5060    1.1860 c3        1 MOL      0.468314
     52 C18         4.1800   -3.4690    2.6980 c         1 MOL      0.403465
     53 O9          5.1350   -4.0240    3.2270 o         1 MOL     -0.550261
     54 H23         4.3950   -5.5350    0.4450 hn        1 MOL      0.291388
     55 H24         3.0520   -3.4150    0.8590 h1        1 MOL     -0.079869
     56 H25         4.6450   -2.6280    0.8440 h1        1 MOL     -0.079869
     57 N5          3.3430   -2.7890    3.5140 n         1 MOL     -0.499647
     58 C19         2.1100   -2.0440    3.2460 c3        1 MOL      0.237941
     59 C20         2.2560   -0.8760    2.1960 c         1 MOL      0.503347
     60 O10         3.3150   -0.2210    2.0950 o         1 MOL     -0.660613
     61 C21         1.4570   -1.6200    4.5600 c3        1 MOL     -0.313077
     62 C22         0.8280   -2.7250    5.3720 c         1 MOL      0.771082
     63 O11         0.5560   -2.4460    6.5340 o         1 MOL     -0.738962
     64 O12         0.5590   -3.7990    4.8630 o         1 MOL     -0.738962
     65 H26         3.6370   -2.7640    4.4730 hn        1 MOL      0.320943
     66 H27         1.5270   -2.8630    2.8120 h1        1 MOL      0.048662
     67 H28         0.7090   -0.8550    4.3420 hc        1 MOL      0.061050
     68 H29         2.1760   -1.1660    5.2470 hc        1 MOL      0.061050
     69 N6          1.2420   -0.7200    1.3340 n         1 MOL     -0.418216
     70 C23        -0.1620   -1.1340    1.5420 c3        1 MOL      0.031981
     71 C24        -0.5310   -2.5190    0.8600 c         1 MOL      0.385050
     72 O13         0.3020   -3.4170    0.7460 o         1 MOL     -0.449020
     73 H30         1.3360    0.1070    0.7650 hn        1 MOL      0.284973
     74 H31        -0.8220   -0.3990    1.1000 h1        1 MOL      0.070005
     75 H32        -0.3800   -1.2450    2.6040 h1        1 MOL      0.070005
     76 N7         -1.8470   -2.7920    0.5700 n         1 MOL     -0.374168
     77 C25        -2.2400   -4.1290    0.1430 c3        1 MOL      0.271843
     78 C26        -3.0020   -4.1880   -1.2040 c         1 MOL      0.265472
     79 O14        -3.0030   -5.2740   -1.8350 o         1 MOL     -0.512554
     80 C27        -3.1620   -4.7760    1.2270 c3        1 MOL     -0.245312
     81 C28        -4.3340   -4.0350    1.8670 c3        1 MOL     -0.111812
     82 C29        -5.4630   -3.7310    0.8740 c         1 MOL      0.135867
     83 N8         -6.1520   -4.7760    0.4730 n         1 MOL     -0.420115
     84 O15        -5.7110   -2.6090    0.3690 o         1 MOL     -0.417177
     85 H33        -2.5200   -2.0270    0.5440 hn        1 MOL      0.245186
     86 H34        -1.4390   -4.8720    0.1300 h1        1 MOL      0.082685
     87 H35        -2.5150   -4.8470    2.1020 hc        1 MOL      0.093368
     88 H36        -3.5050   -5.7480    0.8510 hc        1 MOL      0.093368
     89 H37        -4.0540   -3.0860    2.3280 hc        1 MOL      0.107564
     90 H38        -4.6220   -4.6630    2.7110 hc        1 MOL      0.107564
     91 H39        -6.0070   -5.6650    0.9400 hn        1 MOL      0.286930
     92 H40        -7.0150   -4.5570   -0.0110 hn        1 MOL      0.286930
     93 N9         -3.4560   -3.0420   -1.7620 n         1 MOL     -0.175447
     94 C30        -3.8640   -2.7860   -3.1470 c3        1 MOL     -0.106849
     95 C31        -5.1370   -1.8860   -3.3240 c         1 MOL      0.350502
     96 O16        -5.2890   -1.2960   -4.4070 o         1 MOL     -0.542802
     97 C32        -2.6070   -2.1550   -3.8290 c3        1 MOL      0.465810
     98 C33        -1.8180   -3.2330   -4.5620 c3        1 MOL     -0.401282
     99 C34        -1.6910   -1.3150   -2.9720 c3        1 MOL     -0.401282
    100 H41        -3.4820   -2.2100   -1.1880 hn        1 MOL      0.191408
    101 H42        -4.1330   -3.6770   -3.7050 h1        1 MOL      0.101198
    102 H43        -3.0320   -1.5040   -4.5950 hc        1 MOL     -0.054769
    103 H44        -2.5460   -3.6250   -5.2770 hc        1 MOL      0.083200
    104 H45        -1.0420   -2.7380   -5.1380 hc        1 MOL      0.083200
    105 H46        -1.3910   -4.0190   -3.9460 hc        1 MOL      0.083200
    106 H47        -2.2820   -0.5260   -2.5200 hc        1 MOL      0.083200
    107 H48        -1.1440   -1.8810   -2.2200 hc        1 MOL      0.083200
    108 H49        -0.9780   -0.8330   -3.6420 hc        1 MOL      0.083200
    109 N10        -5.9510   -1.7350   -2.3330 n         1 MOL     -0.196221
    110 C35        -7.2310   -1.0340   -2.4470 c3        1 MOL      0.031954
    111 C36        -7.1880    0.4290   -2.0380 c         1 MOL      0.643812
    112 O17        -8.1850    1.0630   -2.3420 o         1 MOL     -0.576273
    113 C37        -8.3250   -1.8510   -1.6830 c3        1 MOL     -0.243144
    114 C38        -8.4210   -3.3980   -1.9800 c         1 MOL      0.625882
    115 N11        -8.2520   -3.8850   -3.1550 n         1 MOL     -0.754686
    116 O18        -8.5170   -4.1970   -1.0770 o         1 MOL     -0.575527
    117 H50        -5.6710   -2.0990   -1.4370 hn        1 MOL      0.250842
    118 H51        -7.4650   -0.9090   -3.5040 h1        1 MOL      0.041167
    119 H52        -9.2830   -1.3730   -1.8590 hc        1 MOL      0.094086
    120 H53        -8.0290   -1.7390   -0.6330 hc        1 MOL      0.094086
    121 H54        -8.2330   -3.3020   -3.9850 hn        1 MOL      0.370317
    122 H55        -8.2460   -4.8910   -3.1850 hn        1 MOL      0.370317
    123 N12        -6.1840    0.9360   -1.3140 n         1 MOL     -0.459014
    124 C39        -6.2170    2.1520   -0.5530 c3        1 MOL      0.062989
    125 C40        -4.8230    2.7330   -0.2260 c         1 MOL      0.526876
    126 O19        -3.8340    1.9780   -0.2530 o         1 MOL     -0.372934
    127 C41        -7.0680    1.9120    0.7380 c3        1 MOL     -0.067347
    128 C42        -6.4830    1.0340    1.8670 ca        1 MOL      0.032039
    129 C43        -7.0790   -0.1930    2.0910 ca        1 MOL     -0.116660
    130 C44        -5.3440    1.4040    2.6170 ca        1 MOL     -0.116660
    131 C45        -6.6420   -1.0270    3.1050 ca        1 MOL     -0.274571
    132 C46        -4.8490    0.5460    3.6090 ca        1 MOL     -0.274571
    133 C47        -5.6010   -0.5980    3.9150 ca        1 MOL      0.328427
    134 O20        -5.1400   -1.4280    4.8460 oh        1 MOL     -0.397717
    135 H56        -5.3200    0.4310   -1.1990 hn        1 MOL      0.178438
    136 H57        -6.7340    2.9940   -1.0240 h1        1 MOL      0.038827
    137 H58        -8.0750    1.5570    0.5430 hc        1 MOL      0.043729
    138 H59        -7.1770    2.8840    1.2370 hc        1 MOL      0.043729
    139 H60        -7.9880   -0.4540    1.5780 ha        1 MOL      0.077664
    140 H61        -4.7820    2.3160    2.4740 ha        1 MOL      0.077664
    141 H62        -7.0870   -2.0110    3.1610 ha        1 MOL      0.181098
    142 H63        -3.8930    0.7830    4.0500 ha        1 MOL      0.181098
    143 H64        -5.6970   -2.2100    4.8600 ho        1 MOL      0.274405
    144 N13        -4.8210    4.0040    0.1390 n         1 MOL     -0.538903
    145 C48        -3.7460    4.9670    0.6110 c3        1 MOL      0.036111
    146 C49        -2.3290    5.0150   -0.0580 c         1 MOL      0.179344
    147 O21        -1.6120    6.0270    0.1570 o         1 MOL     -0.450848
    148 C50        -3.5120    5.0230    2.0970 c3        1 MOL      0.147396
    149 C51        -4.7500    5.3430    2.8770 c3        1 MOL     -0.088829
    150 C52        -4.5470    5.2010    4.4450 c         1 MOL      0.557504
    151 O22        -5.0310    4.2370    5.1470 o         1 MOL     -0.674402
    152 O23        -3.9100    6.1380    5.0380 o         1 MOL     -0.674402
    153 H65        -5.7440    4.4030    0.1320 hn        1 MOL      0.305253
    154 H66        -4.1180    5.9640    0.3990 h1        1 MOL      0.074482
    155 H67        -2.7960    5.8040    2.3430 hc        1 MOL      0.027897
    156 H68        -3.0410    4.0980    2.4310 hc        1 MOL      0.027897
    157 H69        -5.5270    4.6440    2.5730 hc        1 MOL     -0.024494
    158 H70        -5.1350    6.3330    2.6660 hc        1 MOL     -0.024494
    159 N14        -1.9070    4.0290   -0.8430 n         1 MOL     -0.068054
    160 C53        -0.7590    4.0730   -1.7690 c3        1 MOL      0.001988
    161 C54        -1.0100    5.0510   -2.9530 c         1 MOL      0.421053
    162 O24        -0.1350    5.8260   -3.2650 o         1 MOL     -0.510222
    163 C55        -0.4790    2.6070   -2.3620 c3        1 MOL     -0.247880
    164 C56        -0.1730    1.5750   -1.2320 c3        1 MOL      0.200888
    165 C57         0.7920    2.0050   -0.1260 c         1 MOL      0.562092
    166 O25         0.3010    2.7030    0.8030 o         1 MOL     -0.623647
    167 O26         1.9720    1.6030   -0.0790 o         1 MOL     -0.623647
    168 H71        -2.4880    3.2000   -0.8280 hn        1 MOL      0.110364
    169 H72         0.1010    4.4660   -1.2210 h1        1 MOL      0.147214
    170 H73         0.3390    2.7190   -3.0700 hc        1 MOL      0.062403
    171 H74        -1.3860    2.2110   -2.8080 hc        1 MOL      0.062403
    172 H75         0.1910    0.6420   -1.6610 hc        1 MOL     -0.067003
    173 H76        -1.1550    1.2220   -0.8960 hc        1 MOL     -0.067003
    174 N15        -2.2760    5.1500   -3.3810 n         1 MOL     -0.219041
    175 C58        -2.8150    6.1100   -4.3730 c3        1 MOL     -0.159441
    176 H77        -3.6670    6.6380   -3.9420 h1        1 MOL      0.076020
    177 H78        -2.0410    6.8290   -4.6420 h1        1 MOL      0.076020
    178 H79        -3.1360    5.5710   -5.2650 h1        1 MOL      0.076020
    179 H80        -2.9850    4.5020   -3.0710 hn        1 MOL      0.208178
    180 Ca1         4.2920    2.0720    0.9470 Ca        1 MOL      1.784022
    181 O27         5.4030    3.2750    3.2460 oh        1 MOL     -0.812025
    182 H81         5.8660    4.0030    2.8340 ho        1 MOL      0.385506
    183 H82         5.8850    3.1120    4.0510 ho        1 MOL      0.385506
    184 O28         6.0340    0.4190    2.2940 oh        1 MOL     -0.812025
    185 H83         6.9580    0.2200    2.1440 ho        1 MOL      0.385506
    186 H84         5.8150   -0.0340    3.1060 ho        1 MOL      0.385506
    187 O29         3.7500    4.7820    0.6780 oh        1 MOL     -0.812025
    188 H85         3.5750    5.2200    1.5130 ho        1 MOL      0.385506
    189 H86         4.2470    5.4340    0.1750 ho        1 MOL      0.385506
    190 O30         2.1890    2.8080    2.7570 oh        1 MOL     -0.812025
    191 H87         1.5350    2.7450    2.0740 ho        1 MOL      0.385506
    192 H88         1.7330    3.2380    3.4810 ho        1 MOL      0.385506
@<TRIPOS>BOND
     1    1    2 1   
     2    1    4 1   
     3    1    5 1   
     4    1    6 1   
     5    2    3 2   
     6    2    7 1   
     7    7    8 1   
     8    7   15 1   
     9    8    9 1   
    10    8   11 1   
    11    8   16 1   
    12    9   10 2   
    13    9   19 1   
    14   11   12 1   
    15   11   17 1   
    16   11   18 1   
    17   12   13 1   
    18   12   14 1   
    19   19   20 1   
    20   19   27 1   
    21   20   21 1   
    22   20   23 1   
    23   20   28 1   
    24   21   22 2   
    25   21   38 1   
    26   23   24 1   
    27   23   25 1   
    28   23   29 1   
    29   24   26 1   
    30   24   30 1   
    31   24   31 1   
    32   25   32 1   
    33   25   33 1   
    34   25   34 1   
    35   26   35 1   
    36   26   36 1   
    37   26   37 1   
    38   38   39 1   
    39   38   46 1   
    40   39   40 1   
    41   39   42 1   
    42   39   47 1   
    43   40   41 2   
    44   40   50 1   
    45   42   43 1   
    46   42   48 1   
    47   42   49 1   
    48   43   44 1   
    49   43   45 1   
    50   50   51 1   
    51   50   54 1   
    52   51   52 1   
    53   51   55 1   
    54   51   56 1   
    55   52   53 2   
    56   52   57 1   
    57   57   58 1   
    58   57   65 1   
    59   58   59 1   
    60   58   61 1   
    61   58   66 1   
    62   59   60 2   
    63   59   69 1   
    64   61   62 1   
    65   61   67 1   
    66   61   68 1   
    67   62   63 1   
    68   62   64 1   
    69   69   70 1   
    70   69   73 1   
    71   70   71 1   
    72   70   74 1   
    73   70   75 1   
    74   71   72 2   
    75   71   76 1   
    76   76   77 1   
    77   76   85 1   
    78   77   78 1   
    79   77   80 1   
    80   77   86 1   
    81   78   79 2   
    82   78   93 1   
    83   80   81 1   
    84   80   87 1   
    85   80   88 1   
    86   81   82 1   
    87   81   89 1   
    88   81   90 1   
    89   82   83 1   
    90   82   84 2   
    91   83   91 1   
    92   83   92 1   
    93   93   94 1   
    94   93  100 1   
    95   94   95 1   
    96   94   97 1   
    97   94  101 1   
    98   95   96 2   
    99   95  109 1   
   100   97   98 1   
   101   97   99 1   
   102   97  102 1   
   103   98  103 1   
   104   98  104 1   
   105   98  105 1   
   106   99  106 1   
   107   99  107 1   
   108   99  108 1   
   109  109  110 1   
   110  109  117 1   
   111  110  111 1   
   112  110  113 1   
   113  110  118 1   
   114  111  112 2   
   115  111  123 1   
   116  113  114 1   
   117  113  119 1   
   118  113  120 1   
   119  114  115 1   
   120  114  116 2   
   121  115  121 1   
   122  115  122 1   
   123  123  124 1   
   124  123  135 1   
   125  124  125 1   
   126  124  127 1   
   127  124  136 1   
   128  125  126 2   
   129  125  144 1   
   130  127  128 1   
   131  127  137 1   
   132  127  138 1   
   133  128  129 ar  
   134  128  130 ar  
   135  129  131 ar  
   136  129  139 1   
   137  130  132 ar  
   138  130  140 1   
   139  131  133 ar  
   140  131  141 1   
   141  132  133 ar  
   142  132  142 1   
   143  133  134 1   
   144  134  143 1   
   145  144  145 1   
   146  144  153 1   
   147  145  146 1   
   148  145  148 1   
   149  145  154 1   
   150  146  147 2   
   151  146  159 1   
   152  148  149 1   
   153  148  155 1   
   154  148  156 1   
   155  149  150 1   
   156  149  157 1   
   157  149  158 1   
   158  150  151 1   
   159  150  152 1   
   160  159  160 1   
   161  159  168 1   
   162  160  161 1   
   163  160  163 1   
   164  160  169 1   
   165  161  162 2   
   166  161  174 1   
   167  163  164 1   
   168  163  170 1   
   169  163  171 1   
   170  164  165 1   
   171  164  172 1   
   172  164  173 1   
   173  165  166 1   
   174  165  167 1   
   175  174  175 1   
   176  174  179 1   
   177  175  176 1   
   178  175  177 1   
   179  175  178 1   
   180  181  182 1   
   181  181  183 1   
   182  184  185 1   
   183  184  186 1   
   184  187  188 1   
   185  187  189 1   
   186  190  191 1   
   187  190  192 1   
@<TRIPOS>SUBSTRUCTURE
     1 MOL         1 TEMP              0 ****  ****    0 ROOT
