@<TRIPOS>MOLECULE
MOL
  178   175     1     0     0
SMALL
resp


@<TRIPOS>ATOM
      1 C1          9.7910    6.0350   -2.6490 c3        1 MOL     -0.308671
      2 C2          9.0750    5.1550   -1.6010 c         1 MOL      0.615220
      3 O1          8.0400    5.5770   -1.0560 o         1 MOL     -0.570460
      4 H1          9.4870    5.7270   -3.6500 hc        1 MOL      0.066983
      5 H2          9.5210    7.0790   -2.4930 hc        1 MOL      0.066983
      6 H3         10.8700    5.9180   -2.5450 hc        1 MOL      0.066983
      7 N1          9.6510    4.0710   -1.1950 n         1 MOL     -0.228178
      8 C3         10.9300    3.3730   -1.6070 c3        1 MOL     -0.391392
      9 C4         11.5270    2.6390   -0.4090 c         1 MOL      0.541236
     10 O2         11.2320    2.9690    0.7400 o         1 MOL     -0.436496
     11 C5         10.7160    2.4430   -2.8320 c3        1 MOL     -0.116526
     12 C6          9.6260    1.3870   -2.6950 c         1 MOL      0.694030
     13 O3          8.6130    1.4450   -3.4680 o         1 MOL     -0.710566
     14 O4          9.8500    0.4000   -1.9500 o         1 MOL     -0.710566
     15 H4          9.1580    3.6830   -0.4030 hn        1 MOL      0.190268
     16 H5         11.5650    4.2470   -1.7880 h1        1 MOL      0.192388
     17 H6         11.6930    1.9910   -3.0260 hc        1 MOL      0.042721
     18 H7         10.4450    3.0290   -3.7120 hc        1 MOL      0.042721
     19 N2         12.2460    1.5490   -0.6400 n         1 MOL     -0.455222
     20 C7         12.8550    0.5800    0.2650 c3        1 MOL      0.219758
     21 C8         11.8510    0.0860    1.3920 c         1 MOL      0.330595
     22 O5         12.2000   -0.0120    2.5710 o         1 MOL     -0.509237
     23 C9         14.1570    1.0990    0.8690 c3        1 MOL     -0.389116
     24 H8         12.3030    1.3140   -1.6260 hn        1 MOL      0.307176
     25 H9         13.0180   -0.2650   -0.3990 h1        1 MOL      0.037158
     26 H10        14.0060    1.8560    1.6410 hc        1 MOL      0.104162
     27 H11        14.7480    0.2520    1.2310 hc        1 MOL      0.104162
     28 H12        14.7830    1.5790    0.1180 hc        1 MOL      0.104162
     29 N3         10.5730   -0.0520    1.0330 n         1 MOL     -0.202387
     30 C10         9.4750   -0.3500    1.9410 c3        1 MOL      0.154533
     31 C11         8.6340   -1.4380    1.3240 c         1 MOL      0.454512
     32 O6          8.7260   -1.7910    0.1770 o         1 MOL     -0.567552
     33 C12         8.6260    0.9480    2.2670 c3        1 MOL     -0.281185
     34 C13         8.2180    1.7570    1.0170 c         1 MOL      0.741954
     35 O7          8.1600    2.9890    1.0600 o         1 MOL     -0.636761
     36 O8          7.7950    1.1420    0.0610 o         1 MOL     -0.636761
     37 H13        10.3710   -0.0050    0.0450 hn        1 MOL      0.148785
     38 H14         9.8270   -0.8110    2.8570 h1        1 MOL      0.013488
     39 H15         9.2250    1.5880    2.9040 hc        1 MOL      0.076042
     40 H16         7.7770    0.6240    2.8750 hc        1 MOL      0.076042
     41 N4          7.6710   -1.9650    2.1220 n         1 MOL     -0.386031
     42 C14         6.6620   -2.9620    1.8470 c3        1 MOL     -0.164260
     43 C15         5.5730   -2.3500    0.8980 c         1 MOL      0.561350
     44 O9          5.8840   -1.4160    0.1750 o         1 MOL     -0.514193
     45 H17         7.5530   -1.4450    2.9720 hn        1 MOL      0.275353
     46 H18         6.2190   -3.3930    2.7420 h1        1 MOL      0.103297
     47 H19         7.2210   -3.7740    1.3760 h1        1 MOL      0.103297
     48 N5          4.4270   -3.0430    0.8770 n         1 MOL     -0.497860
     49 C16         3.3590   -3.0050   -0.1660 c3        1 MOL      0.245236
     50 C17         1.8890   -3.2070    0.3670 c         1 MOL      0.440755
     51 O10         0.9420   -3.4710   -0.4250 o         1 MOL     -0.485789
     52 C18         3.7300   -4.0210   -1.2870 c3        1 MOL     -0.331499
     53 C19         5.1610   -4.0460   -1.8290 c         1 MOL      0.771012
     54 N6          5.6960   -5.1840   -1.9420 n         1 MOL     -0.734889
     55 O11         5.8050   -3.0320   -2.0930 o         1 MOL     -0.679310
     56 H20         4.4580   -3.7500    1.5920 hn        1 MOL      0.252418
     57 H21         3.3920   -1.9900   -0.5560 h1        1 MOL      0.068610
     58 H22         3.0420   -3.7850   -2.1010 hc        1 MOL      0.098693
     59 H23         3.5610   -5.0320   -0.9140 hc        1 MOL      0.098693
     60 H24         5.2710   -6.0580   -1.6410 hn        1 MOL      0.339497
     61 H25         6.6330   -5.2720   -2.3100 hn        1 MOL      0.339497
     62 N7          1.7260   -2.8620    1.6490 n         1 MOL     -0.461799
     63 C20         0.3770   -2.7940    2.2290 c3        1 MOL      0.219712
     64 C21         0.2940   -1.6210    3.2080 c         1 MOL      0.495486
     65 O12         1.1880   -0.8410    3.3160 o         1 MOL     -0.552352
     66 H26         2.4710   -2.4460    2.1830 hn        1 MOL      0.256097
     67 H27         0.1690   -3.7330    2.7380 h1        1 MOL      0.033769
     68 H28        -0.4330   -2.6580    1.5130 h1        1 MOL      0.033769
     69 N8         -0.7410   -1.4530    3.9820 n         1 MOL     -0.398031
     70 C22        -2.0150   -2.2320    4.0590 c3        1 MOL     -0.395685
     71 C23        -3.0330   -1.8570    2.9240 c         1 MOL      0.660117
     72 O13        -3.9410   -2.6310    2.6860 o         1 MOL     -0.547307
     73 C24        -2.7840   -2.1590    5.3520 c3        1 MOL      0.491997
     74 C25        -1.9930   -2.7210    6.5380 c3        1 MOL     -0.471436
     75 O14        -3.1440   -0.8150    5.6800 oh        1 MOL     -0.606926
     76 H29        -0.6710   -0.7690    4.7130 hn        1 MOL      0.332154
     77 H30        -1.7100   -3.2590    3.8560 h1        1 MOL      0.151127
     78 H31        -3.7630   -2.6100    5.1870 h1        1 MOL     -0.002299
     79 H32        -4.0960   -0.8040    5.5570 ho        1 MOL      0.416907
     80 H33        -1.7350   -3.7550    6.2880 hc        1 MOL      0.118870
     81 H34        -1.1500   -2.0480    6.6960 hc        1 MOL      0.118870
     82 H35        -2.6200   -2.6910    7.4320 hc        1 MOL      0.118870
     83 N9         -2.8420   -0.7710    2.2060 n         1 MOL     -0.576235
     84 C26        -3.5500   -0.5290    0.8750 c3        1 MOL     -0.021813
     85 C27        -3.0760   -1.6810   -0.0640 c         1 MOL      0.590069
     86 O15        -1.8790   -2.0010   -0.2020 o         1 MOL     -0.543742
     87 C28        -3.1330    0.8860    0.3130 c3        1 MOL      0.142393
     88 C29        -3.3060    1.9660    1.3730 c3        1 MOL     -0.023985
     89 C30        -3.9440    1.3660   -0.8800 c3        1 MOL     -0.095366
     90 C31        -2.8240    3.4280    1.0920 c3        1 MOL     -0.370211
     91 H36        -2.1710   -0.0930    2.5350 hn        1 MOL      0.336972
     92 H37        -4.6300   -0.4910    1.0160 h1        1 MOL      0.141029
     93 H38        -2.0980    0.8380    0.0010 hc        1 MOL     -0.008147
     94 H39        -2.7030    1.6880    2.2280 hc        1 MOL      0.050613
     95 H40        -4.3300    1.9290    1.7600 hc        1 MOL      0.050613
     96 H41        -4.9850    1.5130   -0.6020 hc        1 MOL      0.028772
     97 H42        -3.5260    2.2260   -1.4040 hc        1 MOL      0.028772
     98 H43        -3.8970    0.5830   -1.6280 hc        1 MOL      0.028772
     99 H44        -3.5450    3.9460    0.4610 hc        1 MOL      0.090317
    100 H45        -2.8330    4.1020    1.9430 hc        1 MOL      0.090317
    101 H46        -1.8660    3.5630    0.5990 hc        1 MOL      0.090317
    102 N10        -3.9800   -2.4530   -0.7530 n         1 MOL     -0.577259
    103 C32        -5.4040   -2.6020   -0.4570 c3        1 MOL      0.319967
    104 C33        -6.4040   -1.8130   -1.3070 c         1 MOL      0.423682
    105 O16        -6.1230   -0.9160   -2.0770 o         1 MOL     -0.528697
    106 C34        -5.7120   -4.1610   -0.4040 c3        1 MOL     -0.157291
    107 C35        -5.5430   -4.9910   -1.6510 c         1 MOL      0.704650
    108 O17        -5.1900   -4.4940   -2.7400 o         1 MOL     -0.721830
    109 O18        -5.8290   -6.1960   -1.5740 o         1 MOL     -0.721830
    110 H47        -3.5530   -3.1690   -1.3170 hn        1 MOL      0.331492
    111 H48        -5.6020   -2.2780    0.5650 h1        1 MOL     -0.005090
    112 H49        -6.7040   -4.3260    0.0320 hc        1 MOL      0.002475
    113 H50        -5.1160   -4.6250    0.3770 hc        1 MOL      0.002475
    114 N11        -7.6410   -2.0800   -0.9440 n         1 MOL     -0.504699
    115 C36        -8.8110   -1.3570   -1.4150 c3        1 MOL      0.224691
    116 C37       -10.0010   -1.4110   -0.3960 c         1 MOL      0.347240
    117 O19       -10.2580   -2.5310    0.0670 o         1 MOL     -0.504140
    118 C38        -9.1560   -1.8460   -2.8010 c3        1 MOL     -0.193066
    119 C39        -9.9560   -0.8550   -3.6310 ca        1 MOL      0.052532
    120 C40       -11.3270   -1.0270   -3.7240 ca        1 MOL     -0.117057
    121 C41        -9.3460    0.3060   -4.0880 ca        1 MOL     -0.117057
    122 C42       -12.1080   -0.1540   -4.5180 ca        1 MOL     -0.161578
    123 C43       -10.1030    1.1770   -4.8490 ca        1 MOL     -0.161578
    124 C44       -11.4340    0.9430   -5.0990 ca        1 MOL     -0.082100
    125 H51        -7.8500   -2.7420   -0.2160 hn        1 MOL      0.306129
    126 H52        -8.5070   -0.3100   -1.5230 h1        1 MOL      0.071650
    127 H53        -9.6810   -2.8060   -2.8180 hc        1 MOL      0.095363
    128 H54        -8.3160   -2.0050   -3.4710 hc        1 MOL      0.095363
    129 H55       -11.8150   -1.8580   -3.2260 ha        1 MOL      0.116033
    130 H56        -8.2970    0.5070   -3.9780 ha        1 MOL      0.116033
    131 H57       -13.1830   -0.2920   -4.5110 ha        1 MOL      0.105226
    132 H58        -9.5820    2.0020   -5.3110 ha        1 MOL      0.105226
    133 H59       -11.8770    1.6730   -5.7500 ha        1 MOL      0.078564
    134 N12       -10.6450   -0.3050   -0.0360 n         1 MOL     -0.126885
    135 C45       -10.5110    1.0990   -0.5500 c3        1 MOL      0.149796
    136 C46        -9.2630    1.8470   -0.0140 c         1 MOL      0.436841
    137 O20        -8.2320    1.1710    0.2690 o         1 MOL     -0.511221
    138 C47       -11.7090    1.8220    0.0200 c3        1 MOL     -0.039189
    139 C48       -12.7490    0.6720    0.2460 c3        1 MOL     -0.102072
    140 C49       -11.8130   -0.4000    0.8460 c3        1 MOL     -0.028280
    141 H60       -10.5200    1.1580   -1.6380 h1        1 MOL      0.022486
    142 H61       -11.5590    2.2800    1.0010 hc        1 MOL      0.024937
    143 H62       -12.0120    2.5600   -0.7230 hc        1 MOL      0.024937
    144 H63       -13.4730    0.9650    1.0050 hc        1 MOL      0.030813
    145 H64       -13.3320    0.4300   -0.6420 hc        1 MOL      0.030813
    146 H65       -11.5880   -0.1770    1.8920 h1        1 MOL      0.077724
    147 H66       -12.3170   -1.3670    0.8260 h1        1 MOL      0.077724
    148 N13        -9.1660    3.1970    0.1200 n         1 MOL     -0.566066
    149 C50        -7.8940    3.9370    0.4960 c3        1 MOL      0.472415
    150 C51        -7.8180    5.3330   -0.1830 c         1 MOL      0.345490
    151 O21        -8.0830    6.3770    0.4400 o         1 MOL     -0.515317
    152 C52        -7.8460    4.0490    1.9750 c3        1 MOL     -0.140982
    153 C53        -6.5640    4.2560    2.7730 c3        1 MOL     -0.347894
    154 C54        -6.8180    4.0910    4.2320 c         1 MOL      0.826890
    155 O22        -7.0320    5.0740    4.9980 o         1 MOL     -0.758506
    156 O23        -6.6980    2.9700    4.6660 o         1 MOL     -0.758506
    157 H67       -10.0140    3.7490    0.0500 hn        1 MOL      0.275925
    158 H68        -7.0100    3.3680    0.2050 h1        1 MOL     -0.007236
    159 H69        -8.2740    3.1290    2.3540 hc        1 MOL      0.055117
    160 H70        -8.6260    4.6930    2.3680 hc        1 MOL      0.055117
    161 H71        -6.1580    5.2560    2.5980 hc        1 MOL      0.065861
    162 H72        -5.8950    3.4760    2.4180 hc        1 MOL      0.065861
    163 N14        -7.6700    5.4480   -1.5120 n         1 MOL     -0.392991
    164 C55        -7.7690    4.4620   -2.5610 c3        1 MOL     -0.104998
    165 H73        -6.9040    4.5430   -3.2180 h1        1 MOL      0.075533
    166 H74        -7.7990    3.4650   -2.1220 h1        1 MOL      0.075533
    167 H75        -8.6780    4.6330   -3.1370 h1        1 MOL      0.075533
    168 H76        -7.6930    6.4180   -1.8040 hn        1 MOL      0.281100
    169 Ca1         7.4570   -0.6030   -1.8400 Ca        1 MOL      1.729069
    170 O24         9.0470   -2.6860   -2.6820 oh        1 MOL     -0.848261
    171 H77         9.3430   -3.1290   -3.4740 ho        1 MOL      0.422944
    172 H78         8.8390   -3.3980   -2.0790 ho        1 MOL      0.422944
    173 O25         5.1290    0.6360   -1.6280 oh        1 MOL     -0.848261
    174 H79         4.5210    0.1030   -2.1290 ho        1 MOL      0.422944
    175 H80         4.5860    1.0730   -0.9630 ho        1 MOL      0.422944
    176 O26         6.4260   -0.8690   -4.3260 oh        1 MOL     -0.848261
    177 H81         5.5380   -0.7050   -4.6400 ho        1 MOL      0.422944
    178 H82         6.9480   -0.9470   -5.1230 ho        1 MOL      0.422944
@<TRIPOS>BOND
     1    1    2 1   
     2    1    4 1   
     3    1    5 1   
     4    1    6 1   
     5    2    3 2   
     6    2    7 1   
     7    7    8 1   
     8    7   15 1   
     9    8    9 1   
    10    8   11 1   
    11    8   16 1   
    12    9   10 2   
    13    9   19 1   
    14   11   12 1   
    15   11   17 1   
    16   11   18 1   
    17   12   13 1   
    18   12   14 1   
    19   19   20 1   
    20   19   24 1   
    21   20   21 1   
    22   20   23 1   
    23   20   25 1   
    24   21   22 2   
    25   21   29 1   
    26   23   26 1   
    27   23   27 1   
    28   23   28 1   
    29   29   30 1   
    30   29   37 1   
    31   30   31 1   
    32   30   33 1   
    33   30   38 1   
    34   31   32 2   
    35   31   41 1   
    36   33   34 1   
    37   33   39 1   
    38   33   40 1   
    39   34   35 1   
    40   34   36 1   
    41   41   42 1   
    42   41   45 1   
    43   42   43 1   
    44   42   46 1   
    45   42   47 1   
    46   43   44 2   
    47   43   48 1   
    48   48   49 1   
    49   48   56 1   
    50   49   50 1   
    51   49   52 1   
    52   49   57 1   
    53   50   51 2   
    54   50   62 1   
    55   52   53 1   
    56   52   58 1   
    57   52   59 1   
    58   53   54 1   
    59   53   55 2   
    60   54   60 1   
    61   54   61 1   
    62   62   63 1   
    63   62   66 1   
    64   63   64 1   
    65   63   67 1   
    66   63   68 1   
    67   64   65 2   
    68   64   69 1   
    69   69   70 1   
    70   69   76 1   
    71   70   71 1   
    72   70   73 1   
    73   70   77 1   
    74   71   72 2   
    75   71   83 1   
    76   73   74 1   
    77   73   75 1   
    78   73   78 1   
    79   74   80 1   
    80   74   81 1   
    81   74   82 1   
    82   75   79 1   
    83   83   84 1   
    84   83   91 1   
    85   84   85 1   
    86   84   87 1   
    87   84   92 1   
    88   85   86 2   
    89   85  102 1   
    90   87   88 1   
    91   87   89 1   
    92   87   93 1   
    93   88   90 1   
    94   88   94 1   
    95   88   95 1   
    96   89   96 1   
    97   89   97 1   
    98   89   98 1   
    99   90   99 1   
   100   90  100 1   
   101   90  101 1   
   102  102  103 1   
   103  102  110 1   
   104  103  104 1   
   105  103  106 1   
   106  103  111 1   
   107  104  105 2   
   108  104  114 1   
   109  106  107 1   
   110  106  112 1   
   111  106  113 1   
   112  107  108 1   
   113  107  109 1   
   114  114  115 1   
   115  114  125 1   
   116  115  116 1   
   117  115  118 1   
   118  115  126 1   
   119  116  117 2   
   120  116  134 1   
   121  118  119 1   
   122  118  127 1   
   123  118  128 1   
   124  119  120 ar  
   125  119  121 ar  
   126  120  122 ar  
   127  120  129 1   
   128  121  123 ar  
   129  121  130 1   
   130  122  124 ar  
   131  122  131 1   
   132  123  124 ar  
   133  123  132 1   
   134  124  133 1   
   135  134  135 1   
   136  134  140 1   
   137  135  136 1   
   138  135  138 1   
   139  135  141 1   
   140  136  137 2   
   141  136  148 1   
   142  138  139 1   
   143  138  142 1   
   144  138  143 1   
   145  139  140 1   
   146  139  144 1   
   147  139  145 1   
   148  140  146 1   
   149  140  147 1   
   150  148  149 1   
   151  148  157 1   
   152  149  150 1   
   153  149  152 1   
   154  149  158 1   
   155  150  151 2   
   156  150  163 1   
   157  152  153 1   
   158  152  159 1   
   159  152  160 1   
   160  153  154 1   
   161  153  161 1   
   162  153  162 1   
   163  154  155 1   
   164  154  156 1   
   165  163  164 1   
   166  163  168 1   
   167  164  165 1   
   168  164  166 1   
   169  164  167 1   
   170  170  171 1   
   171  170  172 1   
   172  173  174 1   
   173  173  175 1   
   174  176  177 1   
   175  176  178 1   
@<TRIPOS>SUBSTRUCTURE
     1 MOL         1 TEMP              0 ****  ****    0 ROOT
