@<TRIPOS>MOLECULE
MOL
  181   177     1     0     0
SMALL
resp


@<TRIPOS>ATOM
      1 C1          9.9900    6.7500   -1.1890 c3        1 MOL     -0.267404
      2 C2          8.9930    5.6440   -0.8330 c         1 MOL      0.621570
      3 O1          8.0610    5.9200   -0.0970 o         1 MOL     -0.586722
      4 H1         10.7940    6.3330   -1.7950 hc        1 MOL      0.062959
      5 H2          9.4800    7.5310   -1.7520 hc        1 MOL      0.062959
      6 H3         10.4070    7.1730   -0.2750 hc        1 MOL      0.062959
      7 N1          9.0980    4.3790   -1.2270 n         1 MOL     -0.491579
      8 C3         10.0290    3.7160   -2.1990 c3        1 MOL      0.292702
      9 C4         11.0680    2.7680   -1.6490 c         1 MOL      0.460335
     10 O2         12.1960    2.6680   -2.1650 o         1 MOL     -0.551811
     11 C5          9.1080    2.9050   -3.0980 c3        1 MOL     -0.476196
     12 C6          7.9160    2.1400   -2.6070 c         1 MOL      1.028035
     13 O3          7.3850    1.2910   -3.3850 o         1 MOL     -0.826215
     14 O4          7.5560    2.2180   -1.4410 o         1 MOL     -0.826215
     15 H4          8.4240    3.7420   -0.8450 hn        1 MOL      0.287007
     16 H5         10.5960    4.4190   -2.8080 h1        1 MOL      0.030826
     17 H6          9.8540    2.2700   -3.5880 hc        1 MOL      0.092265
     18 H7          8.6880    3.6620   -3.7500 hc        1 MOL      0.092265
     19 N2         10.6880    2.1650   -0.5180 n         1 MOL     -0.553687
     20 C7         11.4660    1.3440    0.4100 c3        1 MOL      0.494368
     21 C8         10.9460   -0.0780    0.6150 c         1 MOL      0.293771
     22 O5         11.5390   -0.9210    1.3070 o         1 MOL     -0.542066
     23 C9         11.5350    2.1830    1.7290 c3        1 MOL     -0.357363
     24 H8          9.8100    2.4050   -0.0760 hn        1 MOL      0.279895
     25 H9         12.4960    1.2740    0.0820 h1        1 MOL     -0.004196
     26 H10        10.5270    2.3530    2.1040 hc        1 MOL      0.093423
     27 H11        12.1550    1.5700    2.3790 hc        1 MOL      0.093423
     28 H12        12.0490    3.1180    1.4800 hc        1 MOL      0.093423
     29 N3          9.8080   -0.4510    0.0030 n         1 MOL     -0.199363
     30 C10         9.1870   -1.7800    0.2490 c3        1 MOL      0.014714
     31 C11         8.1490   -2.1980   -0.7700 c         1 MOL      0.387521
     32 O6          7.6510   -1.3480   -1.5170 o         1 MOL     -0.502116
     33 C12         8.5370   -1.8400    1.6390 c3        1 MOL     -0.009498
     34 C13         7.5400   -0.6560    1.7970 c         1 MOL      0.729047
     35 O7          7.1800   -0.4330    2.9640 o         1 MOL     -0.706271
     36 O8          7.1010    0.0970    0.8650 o         1 MOL     -0.706271
     37 H13         9.2080    0.2100   -0.4620 hn        1 MOL      0.135946
     38 H14         9.9190   -2.5740    0.0850 h1        1 MOL      0.038959
     39 H15         9.3390   -1.7560    2.3690 hc        1 MOL     -0.000137
     40 H16         8.0770   -2.8180    1.7860 hc        1 MOL     -0.000137
     41 N4          7.7800   -3.4820   -0.7370 n         1 MOL     -0.240843
     42 C14         6.6660   -3.9690   -1.5030 c3        1 MOL     -0.396975
     43 C15         5.2180   -3.4700   -1.0890 c         1 MOL      0.593308
     44 O9          5.1150   -2.3350   -0.6300 o         1 MOL     -0.571037
     45 H17         8.3210   -4.2120   -0.3020 hn        1 MOL      0.277334
     46 H18         6.6910   -5.0510   -1.3990 h1        1 MOL      0.156591
     47 H19         6.8140   -3.7080   -2.5520 h1        1 MOL      0.156591
     48 N5          4.1970   -4.2840   -1.3470 n         1 MOL     -0.506492
     49 C16         2.7820   -3.9190   -1.3090 c3        1 MOL      0.038918
     50 C17         2.2300   -3.5170    0.1230 c         1 MOL      0.576418
     51 O10         1.0690   -3.1330    0.2250 o         1 MOL     -0.504350
     52 C18         1.9400   -4.9890   -2.0260 c3        1 MOL     -0.141153
     53 C19         2.3590   -5.2210   -3.4360 c         1 MOL      0.727873
     54 N6          2.2700   -6.4480   -3.8370 n         1 MOL     -0.814678
     55 O11         2.8020   -4.3310   -4.1130 o         1 MOL     -0.572172
     56 H20         4.4320   -5.2130   -1.6640 hn        1 MOL      0.284862
     57 H21         2.6920   -3.0080   -1.9020 h1        1 MOL      0.111266
     58 H22         0.8990   -4.6850   -2.0960 hc        1 MOL      0.063408
     59 H23         1.9770   -5.8730   -1.3830 hc        1 MOL      0.063408
     60 H24         1.7370   -7.1050   -3.2880 hn        1 MOL      0.367494
     61 H25         2.4980   -6.5990   -4.8140 hn        1 MOL      0.367494
     62 N7          3.0670   -3.4980    1.1580 n         1 MOL     -0.562321
     63 C20         2.6310   -3.0990    2.5440 c3        1 MOL     -0.086152
     64 C21         2.3150   -1.5910    2.6530 c         1 MOL      0.952780
     65 O12         2.9870   -0.7620    2.0750 o         1 MOL     -0.711783
     66 H26         4.0540   -3.5600    0.9580 hn        1 MOL      0.342544
     67 H27         3.4170   -3.2900    3.2690 h1        1 MOL      0.095281
     68 H28         1.8110   -3.7540    2.8190 h1        1 MOL      0.095281
     69 N8          1.2060   -1.1900    3.2600 n         1 MOL     -0.714419
     70 C22         0.4160   -1.8340    4.3180 c3        1 MOL     -0.080303
     71 C23        -1.0560   -1.5620    4.0340 c         1 MOL      0.615199
     72 O13        -1.8220   -2.4620    4.3300 o         1 MOL     -0.584636
     73 C24         0.9020   -1.2240    5.6480 c3        1 MOL      0.310236
     74 C25         2.3350   -1.5820    5.9710 c3        1 MOL     -0.311985
     75 O14         0.7770    0.1670    5.5290 oh        1 MOL     -0.630123
     76 H29         1.0270   -0.2400    2.9550 hn        1 MOL      0.372067
     77 H30         0.5610   -2.9110    4.3310 h1        1 MOL      0.083556
     78 H31         0.3310   -1.7070    6.4360 h1        1 MOL      0.032197
     79 H32         1.6530    0.5420    5.6110 ho        1 MOL      0.416153
     80 H33         2.4570   -2.6450    6.1740 hc        1 MOL      0.079354
     81 H34         2.9830   -1.3500    5.1250 hc        1 MOL      0.079354
     82 H35         2.6240   -1.0840    6.9000 hc        1 MOL      0.079354
     83 N9         -1.4520   -0.4290    3.4590 n         1 MOL     -0.133737
     84 C26        -2.7600   -0.0230    2.9780 c3        1 MOL     -0.035220
     85 C27        -2.5800    0.2310    1.4090 c         1 MOL      0.381424
     86 O15        -1.5660    0.7160    0.9410 o         1 MOL     -0.560750
     87 C28        -3.3990    1.1790    3.7140 c3        1 MOL      0.200880
     88 C29        -2.3850    2.3020    3.7780 c3        1 MOL      0.144463
     89 C30        -3.9880    0.7390    5.0410 c3        1 MOL     -0.104939
     90 C31        -3.0590    3.5720    4.2880 c3        1 MOL     -0.338829
     91 H36        -0.7020    0.1790    3.1590 hn        1 MOL      0.104726
     92 H37        -3.3630   -0.9210    3.0840 h1        1 MOL      0.084553
     93 H38        -4.2040    1.5110    3.0600 hc        1 MOL      0.017905
     94 H39        -1.9190    2.5180    2.8190 hc        1 MOL     -0.030009
     95 H40        -1.5860    2.1360    4.4990 hc        1 MOL     -0.030009
     96 H41        -3.1140    0.2320    5.4470 hc        1 MOL      0.008919
     97 H42        -4.2780    1.6060    5.6360 hc        1 MOL      0.008919
     98 H43        -4.7670    0.0050    4.8940 hc        1 MOL      0.008919
     99 H44        -3.3750    3.5130    5.3390 hc        1 MOL      0.077606
    100 H45        -2.3600    4.3960    4.1270 hc        1 MOL      0.077606
    101 H46        -3.9250    3.8550    3.6880 hc        1 MOL      0.077606
    102 N10        -3.4930   -0.0970    0.5240 n         1 MOL     -0.276901
    103 C32        -4.8100   -0.7160    0.7720 c3        1 MOL      0.010582
    104 C33        -5.8490   -0.3420   -0.3090 c         1 MOL      0.343618
    105 O16        -5.4690    0.3580   -1.2560 o         1 MOL     -0.544515
    106 C34        -4.7660   -2.2360    0.9920 c3        1 MOL     -0.115790
    107 C35        -4.5610   -3.1000   -0.2690 c         1 MOL      0.704166
    108 O17        -4.2440   -2.5790   -1.4130 o         1 MOL     -0.695378
    109 O18        -4.6500   -4.2840   -0.0620 o         1 MOL     -0.695378
    110 H47        -3.3430    0.1840   -0.4300 hn        1 MOL      0.290407
    111 H48        -5.2500   -0.2770    1.6690 h1        1 MOL      0.047416
    112 H49        -5.7090   -2.5320    1.4560 hc        1 MOL      0.017325
    113 H50        -4.0740   -2.5380    1.7780 hc        1 MOL      0.017325
    114 N11        -7.1540   -0.5390   -0.1720 n         1 MOL     -0.127027
    115 C36        -8.2820   -0.1290   -1.0450 c3        1 MOL      0.160547
    116 C37        -9.6020    0.0620   -0.2060 c         1 MOL      0.008882
    117 O19        -9.7220   -0.4440    0.9360 o         1 MOL     -0.394694
    118 C38        -8.4110   -1.1500   -2.1590 c3        1 MOL     -0.141417
    119 C39        -9.0180   -2.4920   -1.8280 ca        1 MOL     -0.108171
    120 C40        -8.2010   -3.6700   -1.7030 ca        1 MOL      0.124374
    121 C41       -10.4580   -2.6170   -1.8160 ca        1 MOL      0.124374
    122 C42        -8.8430   -4.8780   -1.6990 ca        1 MOL     -0.303790
    123 C43       -11.0170   -3.8900   -1.8490 ca        1 MOL     -0.303790
    124 C44       -10.2400   -5.0340   -1.8080 ca        1 MOL     -0.028279
    125 H51        -7.4080   -1.0650    0.6550 hn        1 MOL      0.208746
    126 H52        -8.0530    0.8020   -1.5480 h1        1 MOL      0.063207
    127 H53        -7.4460   -1.3210   -2.6460 hc        1 MOL      0.080227
    128 H54        -8.9880   -0.9070   -3.0490 hc        1 MOL      0.080227
    129 H55        -7.1310   -3.5440   -1.7340 ha        1 MOL      0.045736
    130 H56       -11.1760   -1.8280   -1.9770 ha        1 MOL      0.045736
    131 H57        -8.2570   -5.7690   -1.5030 ha        1 MOL      0.133407
    132 H58       -12.0910   -3.9510   -1.8830 ha        1 MOL      0.133407
    133 H59       -10.6890   -6.0210   -1.8620 ha        1 MOL      0.078710
    134 N12       -10.6590    0.7050   -0.7460 n         1 MOL     -0.113207
    135 C45       -10.8100    1.2660   -2.1300 c3        1 MOL      0.278744
    136 C46        -9.7360    2.2580   -2.4860 c         1 MOL      0.403146
    137 O20        -8.9990    2.0550   -3.3950 o         1 MOL     -0.510364
    138 C47       -12.2310    1.8420   -2.1690 c3        1 MOL     -0.245971
    139 C48       -13.0580    1.1600   -1.1240 c3        1 MOL     -0.038493
    140 C49       -11.9310    0.8910   -0.1100 c3        1 MOL      0.075133
    141 H60       -10.7490    0.4910   -2.8900 h1        1 MOL     -0.016566
    142 H61       -12.0670    2.8780   -1.8700 hc        1 MOL      0.063435
    143 H62       -12.5510    1.7570   -3.2110 hc        1 MOL      0.063435
    144 H63       -13.8020    1.7660   -0.6060 hc        1 MOL      0.028865
    145 H64       -13.4710    0.2040   -1.4580 hc        1 MOL      0.028865
    146 H65       -11.8140    1.6670    0.6460 h1        1 MOL      0.044927
    147 H66       -12.3270    0.0390    0.4380 h1        1 MOL      0.044927
    148 N13        -9.4040    3.1260   -1.5220 n         1 MOL     -0.598685
    149 C50        -7.9960    3.5840   -1.1800 c3        1 MOL      0.624382
    150 C51        -7.6470    4.8740   -1.9550 c         1 MOL      0.301261
    151 O21        -8.1360    5.9520   -1.5380 o         1 MOL     -0.560014
    152 C52        -7.8320    3.8630    0.3150 c3        1 MOL     -0.306179
    153 C53        -8.1740    2.6340    1.2050 c3        1 MOL     -0.063943
    154 C54        -8.1210    2.9590    2.7160 c         1 MOL      0.706777
    155 O22        -8.0390    4.1740    3.1180 o         1 MOL     -0.731547
    156 O23        -8.2530    2.0850    3.5440 o         1 MOL     -0.731547
    157 H67       -10.1390    3.4500   -0.9060 hn        1 MOL      0.317978
    158 H68        -7.1960    2.9060   -1.4720 h1        1 MOL     -0.023668
    159 H69        -8.5000    4.7180    0.4120 hc        1 MOL      0.056145
    160 H70        -6.8260    4.1640    0.5960 hc        1 MOL      0.056145
    161 H71        -7.5380    1.7590    1.0730 hc        1 MOL      0.012058
    162 H72        -9.1630    2.3130    0.8970 hc        1 MOL      0.012058
    163 N14        -6.8650    4.9710   -3.0280 n         1 MOL     -0.338128
    164 C55        -5.9960    3.8800   -3.5900 c3        1 MOL     -0.136268
    165 H73        -5.0920    3.7920   -2.9880 h1        1 MOL      0.081588
    166 H74        -6.5390    2.9360   -3.5700 h1        1 MOL      0.081588
    167 H75        -5.7260    4.1230   -4.6170 h1        1 MOL      0.081588
    168 H76        -6.7220    5.8560   -3.4930 hn        1 MOL      0.276126
    169 Ca1         5.6610    0.3910   -1.1770 Ca        1 MOL      1.782409
    170 O24         5.1140   -0.9440   -3.3820 oh        1 MOL     -0.833005
    171 H77         5.5460   -0.4840   -4.1100 ho        1 MOL      0.416459
    172 H78         5.3480   -1.8620   -3.5090 ho        1 MOL      0.416459
    173 O25         4.6480    2.4570   -2.7160 oh        1 MOL     -0.833005
    174 H79         4.7890    2.6330   -3.6530 ho        1 MOL      0.416459
    175 H80         3.7360    2.7150   -2.5650 ho        1 MOL      0.416459
    176 O26         2.9540   -0.2180   -0.7980 oh        1 MOL     -0.833005
    177 H81         2.0470   -0.1300   -1.0960 ho        1 MOL      0.416459
    178 H82         2.8810   -0.5930    0.0690 ho        1 MOL      0.416459
    179 O27         4.3130    1.7050    0.8540 oh        1 MOL     -0.833005
    180 H83         4.2780    2.6290    1.0890 ho        1 MOL      0.416459
    181 H84         4.1220    1.2500    1.6720 ho        1 MOL      0.416459
@<TRIPOS>BOND
     1    1    2 1   
     2    1    4 1   
     3    1    5 1   
     4    1    6 1   
     5    2    3 2   
     6    2    7 1   
     7    7    8 1   
     8    7   15 1   
     9    8    9 1   
    10    8   11 1   
    11    8   16 1   
    12    9   10 2   
    13    9   19 1   
    14   11   12 1   
    15   11   17 1   
    16   11   18 1   
    17   12   13 1   
    18   12   14 1   
    19   19   20 1   
    20   19   24 1   
    21   20   21 1   
    22   20   23 1   
    23   20   25 1   
    24   21   22 2   
    25   21   29 1   
    26   23   26 1   
    27   23   27 1   
    28   23   28 1   
    29   29   30 1   
    30   29   37 1   
    31   30   31 1   
    32   30   33 1   
    33   30   38 1   
    34   31   32 2   
    35   31   41 1   
    36   33   34 1   
    37   33   39 1   
    38   33   40 1   
    39   34   35 1   
    40   34   36 1   
    41   41   42 1   
    42   41   45 1   
    43   42   43 1   
    44   42   46 1   
    45   42   47 1   
    46   43   44 2   
    47   43   48 1   
    48   48   49 1   
    49   48   56 1   
    50   49   50 1   
    51   49   52 1   
    52   49   57 1   
    53   50   51 2   
    54   50   62 1   
    55   52   53 1   
    56   52   58 1   
    57   52   59 1   
    58   53   54 1   
    59   53   55 2   
    60   54   60 1   
    61   54   61 1   
    62   62   63 1   
    63   62   66 1   
    64   63   64 1   
    65   63   67 1   
    66   63   68 1   
    67   64   65 2   
    68   64   69 1   
    69   69   70 1   
    70   69   76 1   
    71   70   71 1   
    72   70   73 1   
    73   70   77 1   
    74   71   72 2   
    75   71   83 1   
    76   73   74 1   
    77   73   75 1   
    78   73   78 1   
    79   74   80 1   
    80   74   81 1   
    81   74   82 1   
    82   75   79 1   
    83   83   84 1   
    84   83   91 1   
    85   84   85 1   
    86   84   87 1   
    87   84   92 1   
    88   85   86 2   
    89   85  102 1   
    90   87   88 1   
    91   87   89 1   
    92   87   93 1   
    93   88   90 1   
    94   88   94 1   
    95   88   95 1   
    96   89   96 1   
    97   89   97 1   
    98   89   98 1   
    99   90   99 1   
   100   90  100 1   
   101   90  101 1   
   102  102  103 1   
   103  102  110 1   
   104  103  104 1   
   105  103  106 1   
   106  103  111 1   
   107  104  105 2   
   108  104  114 1   
   109  106  107 1   
   110  106  112 1   
   111  106  113 1   
   112  107  108 1   
   113  107  109 1   
   114  114  115 1   
   115  114  125 1   
   116  115  116 1   
   117  115  118 1   
   118  115  126 1   
   119  116  117 2   
   120  116  134 1   
   121  118  119 1   
   122  118  127 1   
   123  118  128 1   
   124  119  120 ar  
   125  119  121 ar  
   126  120  122 ar  
   127  120  129 1   
   128  121  123 ar  
   129  121  130 1   
   130  122  124 ar  
   131  122  131 1   
   132  123  124 ar  
   133  123  132 1   
   134  124  133 1   
   135  134  135 1   
   136  134  140 1   
   137  135  136 1   
   138  135  138 1   
   139  135  141 1   
   140  136  137 2   
   141  136  148 1   
   142  138  139 1   
   143  138  142 1   
   144  138  143 1   
   145  139  140 1   
   146  139  144 1   
   147  139  145 1   
   148  140  146 1   
   149  140  147 1   
   150  148  149 1   
   151  148  157 1   
   152  149  150 1   
   153  149  152 1   
   154  149  158 1   
   155  150  151 2   
   156  150  163 1   
   157  152  153 1   
   158  152  159 1   
   159  152  160 1   
   160  153  154 1   
   161  153  161 1   
   162  153  162 1   
   163  154  155 1   
   164  154  156 1   
   165  163  164 1   
   166  163  168 1   
   167  164  165 1   
   168  164  166 1   
   169  164  167 1   
   170  170  171 1   
   171  170  172 1   
   172  173  174 1   
   173  173  175 1   
   174  176  177 1   
   175  176  178 1   
   176  179  180 1   
   177  179  181 1   
@<TRIPOS>SUBSTRUCTURE
     1 MOL         1 TEMP              0 ****  ****    0 ROOT
