@<TRIPOS>MOLECULE
MOL
  188   182     1     0     0
SMALL
resp


@<TRIPOS>ATOM
      1 C1          7.0140   -1.2850    4.9380 c3        1 MOL     -0.459323
      2 C2          6.5240   -0.7640    3.5570 c         1 MOL      0.700332
      3 O1          5.4790   -1.1220    3.0370 o         1 MOL     -0.538033
      4 H1          7.8950   -1.9110    4.7980 hc        1 MOL      0.122319
      5 H2          7.2680   -0.4400    5.5770 hc        1 MOL      0.122319
      6 H3          6.2240   -1.8720    5.4070 hc        1 MOL      0.122319
      7 N1          7.4700   -0.0270    2.8170 n         1 MOL     -0.606712
      8 C3          7.1550    0.5670    1.5010 c3        1 MOL     -0.243285
      9 C4          6.7170   -0.4630    0.4500 c         1 MOL      0.689824
     10 O2          6.1870   -0.1000   -0.6080 o         1 MOL     -0.590132
     11 C5          6.2900    1.7850    1.7890 c3        1 MOL     -0.016093
     12 C6          6.9120    2.7730    2.7790 c         1 MOL      0.806032
     13 O3          8.0800    3.1780    2.4100 o         1 MOL     -0.712999
     14 O4          6.2120    3.1280    3.7390 o         1 MOL     -0.712999
     15 H4          8.3520    0.2320    3.2270 hn        1 MOL      0.308944
     16 H5          8.0170    0.9880    0.9720 h1        1 MOL      0.109262
     17 H6          5.2830    1.4830    2.0920 hc        1 MOL      0.072204
     18 H7          6.1040    2.3230    0.8620 hc        1 MOL      0.072204
     19 N2          7.0180   -1.7420    0.5860 n         1 MOL     -0.528506
     20 C7          6.9580   -2.6800   -0.6230 c3        1 MOL      0.037136
     21 C8          5.5620   -3.2380   -0.9230 c         1 MOL      0.587550
     22 O5          5.3640   -4.4680   -0.9530 o         1 MOL     -0.599909
     23 C9          8.0300   -3.7780   -0.3010 c3        1 MOL      0.034129
     24 C10         9.4570   -3.1680   -0.1310 c3        1 MOL      0.096655
     25 C11        10.3730   -4.2900    0.1040 c3        1 MOL     -0.542025
     26 C12        11.7720   -3.7410    0.4570 c3        1 MOL      0.006088
     27 N3         11.7110   -3.3430    1.8560 n4        1 MOL     -0.512706
     28 H8          7.5430   -1.9310    1.4260 hn        1 MOL      0.308196
     29 H9          7.2710   -2.1550   -1.5260 h1        1 MOL      0.068254
     30 H10         7.9580   -4.4210   -1.1710 hc        1 MOL      0.017202
     31 H11         7.8560   -4.4260    0.5700 hc        1 MOL      0.017202
     32 H12         9.4600   -2.5330    0.7450 hc        1 MOL      0.018564
     33 H13         9.7280   -2.6580   -1.0650 hc        1 MOL      0.018564
     34 H14        10.4990   -4.7750   -0.8670 hc        1 MOL      0.192863
     35 H15        10.0380   -4.9190    0.9330 hc        1 MOL      0.192863
     36 H16        12.0760   -2.9920   -0.2760 hx        1 MOL      0.155800
     37 H17        12.4820   -4.5520    0.2460 hx        1 MOL      0.155800
     38 H18        12.5280   -2.8680    2.2120 hn        1 MOL      0.344981
     39 H19        10.8750   -2.7840    1.9970 hn        1 MOL      0.344981
     40 H20        11.4670   -4.0390    2.5530 hn        1 MOL      0.344981
     41 N4          4.6100   -2.2990   -0.9990 n         1 MOL     -0.494748
     42 C13         3.1900   -2.5910   -1.1150 c3        1 MOL      0.179135
     43 C14         2.6890   -2.1360   -2.5210 c         1 MOL      0.284357
     44 O6          3.1490   -1.1010   -3.0920 o         1 MOL     -0.446318
     45 C15         2.5260   -1.9320    0.0760 c3        1 MOL     -0.126452
     46 C16         1.0380   -2.2320    0.1650 c         1 MOL      0.658819
     47 O7          0.4360   -2.9520   -0.6680 o         1 MOL     -0.680501
     48 O8          0.4080   -1.5020    0.9530 o         1 MOL     -0.680501
     49 H21         4.9480   -1.3610   -0.8580 hn        1 MOL      0.317073
     50 H22         2.9960   -3.6610   -1.0380 h1        1 MOL      0.035222
     51 H23         2.7560   -0.8670    0.1550 hc        1 MOL      0.079634
     52 H24         2.9170   -2.3790    0.9920 hc        1 MOL      0.079634
     53 N5          1.8580   -3.0000   -3.1300 n         1 MOL     -0.155874
     54 C17         1.2450   -2.8790   -4.4980 c3        1 MOL     -0.350635
     55 C18         0.2590   -1.6970   -4.5730 c         1 MOL      0.616501
     56 O9         -0.1790   -1.2720   -5.6890 o         1 MOL     -0.580820
     57 H25         1.5840   -3.8130   -2.5960 hn        1 MOL      0.166339
     58 H26         0.6960   -3.7830   -4.7620 h1        1 MOL      0.159302
     59 H27         2.0510   -2.6470   -5.2030 h1        1 MOL      0.159302
     60 N6         -0.0040   -1.0800   -3.4390 n         1 MOL     -0.413742
     61 C19        -0.8690    0.0340   -3.2130 c3        1 MOL      0.154127
     62 C20        -0.0950    1.3210   -2.9500 c         1 MOL      0.519691
     63 O10        -0.7180    2.4030   -2.8580 o         1 MOL     -0.544052
     64 C21        -1.8590   -0.2740   -2.0690 c3        1 MOL     -0.658089
     65 C22        -2.5900   -1.6240   -2.3510 c         1 MOL      0.868823
     66 N7         -3.3590   -1.7100   -3.4190 n         1 MOL     -0.856270
     67 O11        -2.6140   -2.6290   -1.5790 o         1 MOL     -0.754668
     68 H28         0.5060   -1.4310   -2.6360 hn        1 MOL      0.250465
     69 H29        -1.4330    0.1410   -4.1410 h1        1 MOL      0.037580
     70 H30        -2.6240    0.5060   -2.0370 hc        1 MOL      0.238849
     71 H31        -1.2890   -0.2660   -1.1370 hc        1 MOL      0.238849
     72 H32        -3.1920   -1.0620   -4.1750 hn        1 MOL      0.415560
     73 H33        -3.8180   -2.5920   -3.6190 hn        1 MOL      0.415560
     74 N8          1.2450    1.2760   -2.8760 n         1 MOL     -0.258453
     75 C23         2.1550    2.3710   -2.6970 c3        1 MOL     -0.259694
     76 C24         1.6800    3.1950   -1.4550 c         1 MOL      0.669131
     77 O12         1.6800    2.7080   -0.3240 o         1 MOL     -0.579748
     78 H34         1.7340    0.4520   -3.1910 hn        1 MOL      0.242855
     79 H35         2.1520    2.9980   -3.5950 h1        1 MOL      0.126811
     80 H36         3.1450    2.0070   -2.4330 h1        1 MOL      0.126811
     81 N9          1.3460    4.4340   -1.6020 n         1 MOL     -0.481487
     82 C25         0.5960    5.4070   -0.7380 c3        1 MOL      0.036489
     83 C26        -0.8090    5.0250   -0.2830 c         1 MOL      0.531800
     84 O13        -1.7590    5.8130   -0.4370 o         1 MOL     -0.575922
     85 C27         1.4080    5.7760    0.4570 c3        1 MOL     -0.233806
     86 C28         2.8080    6.3920    0.2530 ca        1 MOL      0.039781
     87 C29         3.8830    5.5870    0.6310 ca        1 MOL     -0.119474
     88 C30         3.0050    7.6350   -0.4070 ca        1 MOL     -0.119474
     89 C31         5.1520    6.1240    0.4400 ca        1 MOL     -0.217893
     90 C32         4.2650    8.2290   -0.3720 ca        1 MOL     -0.217893
     91 C33         5.3630    7.4770    0.0430 ca        1 MOL      0.285269
     92 O14         6.5600    8.0370    0.2050 oh        1 MOL     -0.443747
     93 H37         1.5090    4.8050   -2.5330 hn        1 MOL      0.276726
     94 H38         0.3610    6.2870   -1.3400 h1        1 MOL      0.091696
     95 H39         1.4920    4.8740    1.0680 hc        1 MOL      0.102384
     96 H40         0.8400    6.6010    0.8910 hc        1 MOL      0.102384
     97 H41         3.7360    4.6070    1.0620 ha        1 MOL      0.107790
     98 H42         2.2070    8.3090   -0.6800 ha        1 MOL      0.107790
     99 H43         6.0850    5.6470    0.6660 ha        1 MOL      0.109928
    100 H44         4.3640    9.2540   -0.7090 ha        1 MOL      0.109928
    101 H45         6.5020    8.9920    0.2760 ho        1 MOL      0.347794
    102 N10        -0.9960    3.8200    0.2290 n         1 MOL     -0.263294
    103 C34        -2.1380    3.1410    0.8770 c3        1 MOL      0.021619
    104 C35        -3.3390    2.9550   -0.0600 c         1 MOL      0.406150
    105 O15        -3.8650    1.8420   -0.1490 o         1 MOL     -0.544893
    106 C36        -2.6220    3.9020    2.2050 c3        1 MOL      0.145848
    107 C37        -1.5060    4.3460    3.1660 c3        1 MOL      0.002822
    108 C38        -3.6330    3.0490    2.9120 c3        1 MOL     -0.423447
    109 C39        -0.5530    3.2770    3.6160 c3        1 MOL     -0.315195
    110 H46        -0.1700    3.2430    0.2270 hn        1 MOL      0.255381
    111 H47        -1.7290    2.1790    1.2100 h1        1 MOL      0.104087
    112 H48        -3.1880    4.7840    1.9370 hc        1 MOL     -0.021391
    113 H49        -1.8650    4.9110    4.0180 hc        1 MOL      0.015384
    114 H50        -0.9270    5.0770    2.5990 hc        1 MOL      0.015384
    115 H51        -3.9950    3.5760    3.7970 hc        1 MOL      0.109168
    116 H52        -4.4580    2.8860    2.2120 hc        1 MOL      0.109168
    117 H53        -3.2680    2.0360    3.1070 hc        1 MOL      0.109168
    118 H54        -1.0680    2.6000    4.2960 hc        1 MOL      0.097766
    119 H55        -0.0860    2.7240    2.7970 hc        1 MOL      0.097766
    120 H56         0.3570    3.6910    4.0600 hc        1 MOL      0.097766
    121 N11        -3.7210    3.9740   -0.8460 n         1 MOL     -0.215345
    122 C40        -4.6900    3.7750   -1.9600 c3        1 MOL     -0.121552
    123 C41        -6.0490    3.2450   -1.3590 c         1 MOL      0.444734
    124 O16        -6.8290    2.7000   -2.1010 o         1 MOL     -0.487450
    125 C42        -4.9550    5.0460   -2.7080 c3        1 MOL      0.251296
    126 O17        -3.7640    5.7770   -2.8740 oh        1 MOL     -0.541587
    127 H57        -3.2060    4.8370   -0.8430 hn        1 MOL      0.251186
    128 H58        -4.2870    2.9950   -2.6090 h1        1 MOL      0.102249
    129 H59        -5.6010    5.7110   -2.1290 h1        1 MOL      0.007605
    130 H60        -5.5420    4.8480   -3.6010 h1        1 MOL      0.007605
    131 H61        -4.0190    6.2310   -3.6830 ho        1 MOL      0.364704
    132 N12        -6.3650    3.5160   -0.0540 n         1 MOL     -0.429299
    133 C43        -7.5730    3.0430    0.6950 c3        1 MOL      0.280021
    134 C44        -7.8940    1.5760    0.4620 c         1 MOL      0.430621
    135 O18        -9.0300    1.1420    0.7400 o         1 MOL     -0.532252
    136 C45        -8.7850    3.9410    0.4120 c3        1 MOL     -0.286205
    137 H62        -5.7070    4.0880    0.4570 hn        1 MOL      0.245412
    138 H63        -7.4240    3.2150    1.7610 h1        1 MOL      0.043769
    139 H64        -8.5460    5.0010    0.5010 hc        1 MOL      0.074458
    140 H65        -9.2080    3.7200   -0.5630 hc        1 MOL      0.074458
    141 H66        -9.5200    3.6610    1.1610 hc        1 MOL      0.074458
    142 N13        -6.8730    0.7210    0.1730 n         1 MOL     -0.392201
    143 C46        -7.0220   -0.7170    0.0160 c3        1 MOL      0.258100
    144 C47        -6.9280   -1.4340    1.3790 c         1 MOL      0.353283
    145 O19        -6.2300   -0.9550    2.2980 o         1 MOL     -0.436208
    146 C48        -6.0170   -1.1130   -1.0460 c3        1 MOL     -0.033915
    147 H67        -5.9380    1.0950    0.1370 hn        1 MOL      0.195496
    148 H68        -8.0030   -0.9550   -0.3990 h1        1 MOL     -0.009284
    149 H69        -5.0850   -0.9790   -0.4920 hc        1 MOL      0.019707
    150 H70        -6.0940   -2.1660   -1.3300 hc        1 MOL      0.019707
    151 H71        -6.0630   -0.5210   -1.9660 hc        1 MOL      0.019707
    152 N14        -7.5230   -2.6260    1.4800 n         1 MOL     -0.433629
    153 C49        -7.1620   -3.6380    2.4360 c3        1 MOL     -0.049804
    154 C50        -7.2110   -3.1810    3.8760 c         1 MOL      0.439773
    155 O20        -6.4220   -3.5500    4.7280 o         1 MOL     -0.497612
    156 C51        -5.7310   -4.1640    2.0810 c3        1 MOL      0.312144
    157 C52        -5.8330   -5.0510    0.8340 c3        1 MOL     -0.199729
    158 C53        -4.4070   -5.3100    0.2280 c         1 MOL      0.758870
    159 O21        -3.4910   -5.5540    0.9740 o         1 MOL     -0.768732
    160 O22        -4.1530   -5.4050   -0.9660 o         1 MOL     -0.768732
    161 H72        -8.1720   -2.8330    0.7260 hn        1 MOL      0.293112
    162 H73        -7.9430   -4.3960    2.2960 h1        1 MOL      0.054868
    163 H74        -5.4180   -4.8280    2.8840 hc        1 MOL     -0.037674
    164 H75        -5.0450   -3.3150    2.0180 hc        1 MOL     -0.037674
    165 H76        -6.4070   -4.4360    0.1400 hc        1 MOL      0.011855
    166 H77        -6.4120   -5.9260    1.1090 hc        1 MOL      0.011855
    167 N15        -8.2500   -2.4500    4.2480 n         1 MOL     -0.273343
    168 C54        -8.4380   -1.8350    5.5770 c3        1 MOL     -0.180361
    169 H78        -9.1800   -1.0390    5.5070 h1        1 MOL      0.096280
    170 H79        -8.7830   -2.5900    6.2820 h1        1 MOL      0.096280
    171 H80        -7.4910   -1.4180    5.9220 h1        1 MOL      0.096280
    172 H81        -8.8750   -2.1370    3.5150 hn        1 MOL      0.233125
    173 Ca1        -1.5010   -4.7020   -0.6300 Ca        1 MOL      1.828995
    174 O23        -1.2690   -7.4420   -0.5120 oh        1 MOL     -0.870605
    175 H82        -1.9540   -7.8890   -0.0100 ho        1 MOL      0.426957
    176 H83        -0.4960   -8.0120   -0.4250 ho        1 MOL      0.426957
    177 O24        -0.3140   -5.6070    1.6260 oh        1 MOL     -0.870605
    178 H84        -0.9010   -6.0250    2.2590 ho        1 MOL      0.426957
    179 H85         0.5590   -5.7960    1.9590 ho        1 MOL      0.426957
    180 O25        -1.9770   -2.7920    1.4590 oh        1 MOL     -0.870605
    181 H86        -2.7020   -2.2000    1.2720 ho        1 MOL      0.426957
    182 H87        -1.2010   -2.2420    1.3790 ho        1 MOL      0.426957
    183 O26         1.3050   -5.7480   -1.4000 oh        1 MOL     -0.870605
    184 H88         1.6960   -6.4670   -0.9010 ho        1 MOL      0.426957
    185 H89         1.8560   -5.6690   -2.1730 ho        1 MOL      0.426957
    186 O27        -1.4720   -5.0930   -3.3350 oh        1 MOL     -0.870605
    187 H90        -2.0890   -5.2200   -4.0460 ho        1 MOL      0.426957
    188 H91        -0.8200   -5.7950   -3.4400 ho        1 MOL      0.426957
@<TRIPOS>BOND
     1    1    2 1   
     2    1    4 1   
     3    1    5 1   
     4    1    6 1   
     5    2    3 2   
     6    2    7 1   
     7    7    8 1   
     8    7   15 1   
     9    8    9 1   
    10    8   11 1   
    11    8   16 1   
    12    9   10 2   
    13    9   19 1   
    14   11   12 1   
    15   11   17 1   
    16   11   18 1   
    17   12   13 1   
    18   12   14 1   
    19   19   20 1   
    20   19   28 1   
    21   20   21 1   
    22   20   23 1   
    23   20   29 1   
    24   21   22 2   
    25   21   41 1   
    26   23   24 1   
    27   23   30 1   
    28   23   31 1   
    29   24   25 1   
    30   24   32 1   
    31   24   33 1   
    32   25   26 1   
    33   25   34 1   
    34   25   35 1   
    35   26   27 1   
    36   26   36 1   
    37   26   37 1   
    38   27   38 1   
    39   27   39 1   
    40   27   40 1   
    41   41   42 1   
    42   41   49 1   
    43   42   43 1   
    44   42   45 1   
    45   42   50 1   
    46   43   44 2   
    47   43   53 1   
    48   45   46 1   
    49   45   51 1   
    50   45   52 1   
    51   46   47 1   
    52   46   48 1   
    53   53   54 1   
    54   53   57 1   
    55   54   55 1   
    56   54   58 1   
    57   54   59 1   
    58   55   56 2   
    59   55   60 1   
    60   60   61 1   
    61   60   68 1   
    62   61   62 1   
    63   61   64 1   
    64   61   69 1   
    65   62   63 2   
    66   62   74 1   
    67   64   65 1   
    68   64   70 1   
    69   64   71 1   
    70   65   66 1   
    71   65   67 2   
    72   66   72 1   
    73   66   73 1   
    74   74   75 1   
    75   74   78 1   
    76   75   76 1   
    77   75   79 1   
    78   75   80 1   
    79   76   77 2   
    80   76   81 1   
    81   81   82 1   
    82   81   93 1   
    83   82   83 1   
    84   82   85 1   
    85   82   94 1   
    86   83   84 2   
    87   83  102 1   
    88   85   86 1   
    89   85   95 1   
    90   85   96 1   
    91   86   87 ar  
    92   86   88 ar  
    93   87   89 ar  
    94   87   97 1   
    95   88   90 ar  
    96   88   98 1   
    97   89   91 ar  
    98   89   99 1   
    99   90   91 ar  
   100   90  100 1   
   101   91   92 1   
   102   92  101 1   
   103  102  103 1   
   104  102  110 1   
   105  103  104 1   
   106  103  106 1   
   107  103  111 1   
   108  104  105 2   
   109  104  121 1   
   110  106  107 1   
   111  106  108 1   
   112  106  112 1   
   113  107  109 1   
   114  107  113 1   
   115  107  114 1   
   116  108  115 1   
   117  108  116 1   
   118  108  117 1   
   119  109  118 1   
   120  109  119 1   
   121  109  120 1   
   122  121  122 1   
   123  121  127 1   
   124  122  123 1   
   125  122  125 1   
   126  122  128 1   
   127  123  124 2   
   128  123  132 1   
   129  125  126 1   
   130  125  129 1   
   131  125  130 1   
   132  126  131 1   
   133  132  133 1   
   134  132  137 1   
   135  133  134 1   
   136  133  136 1   
   137  133  138 1   
   138  134  135 2   
   139  134  142 1   
   140  136  139 1   
   141  136  140 1   
   142  136  141 1   
   143  142  143 1   
   144  142  147 1   
   145  143  144 1   
   146  143  146 1   
   147  143  148 1   
   148  144  145 2   
   149  144  152 1   
   150  146  149 1   
   151  146  150 1   
   152  146  151 1   
   153  152  153 1   
   154  152  161 1   
   155  153  154 1   
   156  153  156 1   
   157  153  162 1   
   158  154  155 2   
   159  154  167 1   
   160  156  157 1   
   161  156  163 1   
   162  156  164 1   
   163  157  158 1   
   164  157  165 1   
   165  157  166 1   
   166  158  159 1   
   167  158  160 1   
   168  167  168 1   
   169  167  172 1   
   170  168  169 1   
   171  168  170 1   
   172  168  171 1   
   173  174  175 1   
   174  174  176 1   
   175  177  178 1   
   176  177  179 1   
   177  180  181 1   
   178  180  182 1   
   179  183  184 1   
   180  183  185 1   
   181  186  187 1   
   182  186  188 1   
@<TRIPOS>SUBSTRUCTURE
     1 MOL         1 TEMP              0 ****  ****    0 ROOT
