@<TRIPOS>MOLECULE
MOL
  192   187     1     0     0
SMALL
resp


@<TRIPOS>ATOM
      1 C1         -6.5070   -2.6990    3.1000 c3        1 MOL     -0.191758
      2 C2         -5.3580   -2.7780    2.1070 c         1 MOL      0.600898
      3 O1         -4.6960   -1.7360    1.9690 o         1 MOL     -0.500362
      4 H1         -6.5030   -3.5880    3.7310 hc        1 MOL      0.035093
      5 H2         -6.3890   -1.8110    3.7220 hc        1 MOL      0.035093
      6 H3         -7.4520   -2.6420    2.5610 hc        1 MOL      0.035093
      7 N1         -5.1360   -3.9610    1.4750 n         1 MOL     -0.646043
      8 C3         -4.0940   -4.2120    0.4730 c3        1 MOL      0.002244
      9 C4         -2.7180   -4.0550    1.1050 c         1 MOL      0.584650
     10 O2         -1.8130   -3.5410    0.4420 o         1 MOL     -0.527410
     11 C5         -4.2870   -3.3260   -0.7840 c3        1 MOL     -0.562719
     12 C6         -5.6540   -3.6270   -1.5100 c         1 MOL      0.739034
     13 O3         -5.8080   -4.8000   -1.9490 o         1 MOL     -0.655870
     14 O4         -6.4960   -2.7360   -1.7850 o         1 MOL     -0.655870
     15 H4         -5.7920   -4.6900    1.7020 hn        1 MOL      0.327239
     16 H5         -4.2410   -5.2510    0.1930 h1        1 MOL      0.107550
     17 H6         -3.4920   -3.6760   -1.4460 hc        1 MOL      0.203741
     18 H7         -4.0240   -2.2800   -0.6170 hc        1 MOL      0.203741
     19 N2         -2.4970   -4.2900    2.3560 n         1 MOL     -0.325272
     20 C7         -1.1770   -4.2090    2.9790 c3        1 MOL     -0.179664
     21 C8         -0.4150   -5.5770    2.8110 c         1 MOL      0.421695
     22 O5         -0.6940   -6.5150    3.5610 o         1 MOL     -0.556886
     23 C9         -1.2680   -3.8570    4.5140 c3        1 MOL      0.177703
     24 C10        -2.0420   -2.5740    4.8470 c3        1 MOL     -0.134353
     25 C11        -0.0040   -3.8040    5.3820 c3        1 MOL     -0.304603
     26 C12        -2.4290   -2.3380    6.3010 c3        1 MOL     -0.061426
     27 H8         -3.2400   -4.6610    2.9250 hn        1 MOL      0.267753
     28 H9         -0.5230   -3.4980    2.4760 h1        1 MOL      0.221791
     29 H10        -1.8530   -4.6880    4.9120 hc        1 MOL     -0.005550
     30 H11        -2.9700   -2.5880    4.2850 hc        1 MOL      0.062987
     31 H12        -1.5300   -1.7280    4.3940 hc        1 MOL      0.062987
     32 H13         0.6990   -4.5210    4.9530 hc        1 MOL      0.083604
     33 H14         0.5120   -2.8480    5.3010 hc        1 MOL      0.083604
     34 H15        -0.2100   -4.0580    6.4190 hc        1 MOL      0.083604
     35 H16        -3.1940   -2.9810    6.7440 hc        1 MOL      0.014592
     36 H17        -1.5960   -2.3930    6.9940 hc        1 MOL      0.014592
     37 H18        -2.9210   -1.3680    6.3890 hc        1 MOL      0.014592
     38 N3          0.6140   -5.7830    1.9410 n         1 MOL     -0.318502
     39 C13         1.2870   -4.7200    1.1220 c3        1 MOL     -0.048213
     40 C14         1.6380   -5.2330   -0.2750 c         1 MOL      0.637799
     41 O6          1.8250   -6.4400   -0.4690 o         1 MOL     -0.569917
     42 C15         2.4930   -4.2610    1.9940 c3        1 MOL     -0.174567
     43 C16         3.3680   -3.1820    1.3310 c         1 MOL      0.657669
     44 O7          4.5440   -3.3860    0.9820 o         1 MOL     -0.671663
     45 O8          2.8530   -2.0590    1.0500 o         1 MOL     -0.671663
     46 H19         0.9110   -6.7440    1.9030 hn        1 MOL      0.276306
     47 H20         0.6770   -3.8270    0.9770 h1        1 MOL      0.013175
     48 H21         3.1010   -5.1430    2.1670 hc        1 MOL      0.041064
     49 H22         2.1600   -4.0320    3.0050 hc        1 MOL      0.041064
     50 N4          1.8160   -4.3310   -1.2440 n         1 MOL     -0.506429
     51 C17         2.0340   -4.6610   -2.6500 c3        1 MOL     -0.048402
     52 C18         3.3760   -4.2840   -3.2200 c         1 MOL      0.565585
     53 O9          3.5610   -4.6830   -4.3490 o         1 MOL     -0.592080
     54 H23         1.8950   -3.3390   -1.0520 hn        1 MOL      0.367183
     55 H24         1.3070   -4.1730   -3.3070 h1        1 MOL      0.089925
     56 H25         1.8570   -5.7150   -2.8250 h1        1 MOL      0.089925
     57 N5          4.3400   -3.5490   -2.6010 n         1 MOL     -0.415431
     58 C19         5.6350   -3.1680   -3.1960 c3        1 MOL      0.084621
     59 C20         6.8390   -3.0150   -2.1790 c         1 MOL      0.424860
     60 O10         7.9700   -3.2590   -2.6510 o         1 MOL     -0.572020
     61 C21         5.5120   -1.8730   -3.9660 c3        1 MOL     -0.206381
     62 C22         4.7590   -0.8180   -3.1330 c         1 MOL      0.606988
     63 O11         5.5300   -0.0940   -2.4290 o         1 MOL     -0.616102
     64 O12         3.5360   -0.7560   -2.9890 o         1 MOL     -0.616102
     65 H26         4.1580   -3.4140   -1.6190 hn        1 MOL      0.248114
     66 H27         5.8820   -4.0010   -3.8590 h1        1 MOL      0.072209
     67 H28         4.8400   -2.1170   -4.7850 hc        1 MOL      0.042412
     68 H29         6.4860   -1.5480   -4.3400 hc        1 MOL      0.042412
     69 N6          6.6880   -2.7550   -0.9010 n         1 MOL     -0.315740
     70 C23         7.7290   -2.4890    0.0650 c3        1 MOL     -0.066825
     71 C24         8.3610   -1.0800   -0.0020 c         1 MOL      0.537584
     72 O13         9.3080   -0.8320    0.7520 o         1 MOL     -0.603747
     73 H30         5.7270   -2.6820   -0.6100 hn        1 MOL      0.307442
     74 H31         8.5920   -3.1490    0.0290 h1        1 MOL      0.080879
     75 H32         7.2560   -2.7920    0.9990 h1        1 MOL      0.080879
     76 N7          7.7760   -0.1370   -0.8000 n         1 MOL     -0.206373
     77 C25         8.1060    1.2770   -0.9240 c3        1 MOL      0.215564
     78 C26         8.0430    2.1310    0.3480 c         1 MOL      0.505199
     79 O14         8.7220    3.1510    0.5380 o         1 MOL     -0.538947
     80 C27         9.3350    1.5730   -1.8890 c3        1 MOL     -0.134622
     81 C28         9.1370    0.9790   -3.2660 c3        1 MOL      0.177087
     82 C29         9.6020    1.9520   -4.3730 c         1 MOL      0.561087
     83 N8          9.7410    1.4430   -5.5870 n         1 MOL     -0.829317
     84 O15         9.7300    3.1500   -4.2130 o         1 MOL     -0.532687
     85 H33         7.0460   -0.5210   -1.3920 hn        1 MOL      0.091262
     86 H34         7.2340    1.7120   -1.4190 h1        1 MOL      0.048353
     87 H35        10.2080    1.0230   -1.5310 hc        1 MOL     -0.001337
     88 H36         9.4860    2.6440   -1.9010 hc        1 MOL     -0.001337
     89 H37         8.0690    0.7790   -3.3990 hc        1 MOL     -0.032894
     90 H38         9.6580    0.0350   -3.4300 hc        1 MOL     -0.032894
     91 H39         9.4740    0.4870   -5.7860 hn        1 MOL      0.355914
     92 H40        10.0280    2.0600   -6.3320 hn        1 MOL      0.355914
     93 N9          7.0910    1.6860    1.1460 n         1 MOL     -0.496288
     94 C30         6.8020    2.2110    2.4910 c3        1 MOL      0.067389
     95 C31         5.3860    2.5660    2.8030 c         1 MOL      0.548167
     96 O16         5.0940    3.0740    3.8860 o         1 MOL     -0.571754
     97 C32         7.5560    1.4400    3.5210 c3        1 MOL      0.288362
     98 C33         7.1500   -0.0280    3.6280 c3        1 MOL     -0.262878
     99 C34         9.1110    1.4100    3.4350 c3        1 MOL     -0.262878
    100 H41         6.7220    0.7680    0.9310 hn        1 MOL      0.273346
    101 H42         7.2080    3.2300    2.5200 h1        1 MOL      0.068943
    102 H43         7.2780    1.9720    4.4340 hc        1 MOL     -0.071048
    103 H44         7.5820   -0.4220    4.5450 hc        1 MOL      0.053926
    104 H45         6.0680   -0.1410    3.6960 hc        1 MOL      0.053926
    105 H46         7.4690   -0.6220    2.7700 hc        1 MOL      0.053926
    106 H47         9.4450    0.6870    2.6890 hc        1 MOL      0.053926
    107 H48         9.4600    2.4160    3.1700 hc        1 MOL      0.053926
    108 H49         9.5270    1.1190    4.3960 hc        1 MOL      0.053926
    109 N10         4.3830    2.2780    1.8830 n         1 MOL     -0.495301
    110 C35         2.9310    2.4210    2.0590 c3        1 MOL      0.300231
    111 C36         2.1660    2.5520    0.7300 c         1 MOL      0.504916
    112 O17         2.8010    2.3260   -0.3310 o         1 MOL     -0.501106
    113 C37         2.4750    1.1910    2.9340 c3        1 MOL     -0.396824
    114 C38         1.0260    0.9520    3.1010 c         1 MOL      0.712724
    115 N11         0.6130   -0.1790    2.6350 n         1 MOL     -0.783226
    116 O18         0.2430    1.7960    3.4990 o         1 MOL     -0.615058
    117 H50         4.7540    1.7710    1.0900 hn        1 MOL      0.241946
    118 H51         2.6580    3.3910    2.4600 h1        1 MOL      0.021651
    119 H52         2.8800    1.3030    3.9370 hc        1 MOL      0.123432
    120 H53         2.8320    0.2630    2.5010 hc        1 MOL      0.123432
    121 H54         1.2910   -0.8510    2.3090 hn        1 MOL      0.345818
    122 H55        -0.3680   -0.2790    2.4200 hn        1 MOL      0.345818
    123 N12         0.9270    3.0570    0.8440 n         1 MOL     -0.511661
    124 C39         0.0020    3.1780   -0.2690 c3        1 MOL      0.108167
    125 C40        -1.2180    4.0710    0.1390 c         1 MOL      0.573643
    126 O19        -1.6490    3.9510    1.3110 o         1 MOL     -0.509844
    127 C41        -0.4910    1.7160   -0.6010 c3        1 MOL     -0.336148
    128 C42        -1.8330    1.5540   -1.3160 ca        1 MOL      0.029506
    129 C43        -1.9480    1.8260   -2.7090 ca        1 MOL     -0.161333
    130 C44        -2.9030    1.0380   -0.5370 ca        1 MOL     -0.161333
    131 C45        -3.1700    1.5560   -3.3330 ca        1 MOL     -0.137618
    132 C46        -4.1070    0.8260   -1.1480 ca        1 MOL     -0.137618
    133 C47        -4.2360    1.0190   -2.5470 ca        1 MOL      0.189684
    134 O20        -5.3120    0.5940   -3.2120 oh        1 MOL     -0.592785
    135 H56         0.6290    3.1500    1.8060 hn        1 MOL      0.298700
    136 H57         0.3780    3.5910   -1.2070 h1        1 MOL      0.076556
    137 H58        -0.6340    1.2130    0.3560 hc        1 MOL      0.176846
    138 H59         0.3830    1.2840   -1.0850 hc        1 MOL      0.176846
    139 H60        -1.1410    2.2820   -3.2630 ha        1 MOL      0.135873
    140 H61        -2.6780    0.9160    0.5040 ha        1 MOL      0.135873
    141 H62        -3.2230    1.6710   -4.4050 ha        1 MOL      0.098143
    142 H63        -4.9580    0.3730   -0.6610 ha        1 MOL      0.098143
    143 H64        -6.0210    0.3010   -2.6280 ho        1 MOL      0.617284
    144 N13        -1.9500    4.8740   -0.7500 n         1 MOL     -0.688052
    145 C48        -2.9120    5.8640   -0.3490 c3        1 MOL      0.214139
    146 C49        -4.1230    5.8130   -1.3550 c         1 MOL      0.584652
    147 O21        -4.1510    6.4200   -2.3710 o         1 MOL     -0.570652
    148 C50        -2.3660    7.3120   -0.3660 c3        1 MOL      0.066318
    149 C51        -1.0850    7.5440    0.4830 c3        1 MOL     -0.288795
    150 C52        -0.7020    9.0480    0.5300 c         1 MOL      0.735848
    151 O22        -1.0400    9.7960    1.4520 o         1 MOL     -0.658490
    152 O23         0.0130    9.5620   -0.3520 o         1 MOL     -0.658490
    153 H65        -1.5350    5.0330   -1.6550 hn        1 MOL      0.337992
    154 H66        -3.2060    5.6580    0.6870 h1        1 MOL      0.054389
    155 H67        -3.1610    7.9650   -0.0060 hc        1 MOL     -0.000105
    156 H68        -2.1440    7.5850   -1.4030 hc        1 MOL     -0.000105
    157 H69        -0.2770    6.8900    0.1520 hc        1 MOL      0.062097
    158 H70        -1.3760    7.1650    1.4680 hc        1 MOL      0.062097
    159 N14        -5.2550    5.1560   -1.1510 n         1 MOL     -0.579455
    160 C53        -5.4620    4.0270   -0.1550 c3        1 MOL     -0.066925
    161 C54        -5.6520    4.4760    1.2840 c         1 MOL      0.505253
    162 O24        -6.2440    5.5490    1.5030 o         1 MOL     -0.555191
    163 C55        -6.5320    3.1120   -0.7180 c3        1 MOL      0.325232
    164 C56        -6.9390    1.9180    0.2090 c3        1 MOL     -0.742066
    165 C57        -7.6340    0.6770   -0.4010 c         1 MOL      1.363529
    166 O25        -7.1590    0.1250   -1.4050 o         1 MOL     -0.973354
    167 O26        -8.6230    0.0950    0.0660 o         1 MOL     -0.973354
    168 H71        -5.8290    5.1330   -1.9790 hn        1 MOL      0.328805
    169 H72        -4.5920    3.3560   -0.1980 h1        1 MOL      0.122860
    170 H73        -6.1540    2.6610   -1.6330 hc        1 MOL     -0.052827
    171 H74        -7.4210    3.6220   -1.0900 hc        1 MOL     -0.052827
    172 H75        -7.3980    2.3260    1.1130 hc        1 MOL      0.123073
    173 H76        -5.9900    1.5230    0.5740 hc        1 MOL      0.123073
    174 N15        -5.2590    3.7470    2.3370 n         1 MOL     -0.203070
    175 C58        -5.3820    4.2590    3.7220 c3        1 MOL     -0.136551
    176 H77        -5.7070    5.2980    3.6980 h1        1 MOL      0.075396
    177 H78        -6.1140    3.6620    4.2670 h1        1 MOL      0.075396
    178 H79        -4.4150    4.1930    4.2210 h1        1 MOL      0.075396
    179 H80        -4.6240    2.9730    2.1750 hn        1 MOL      0.225783
    180 Ca1        -8.9020   -1.8770   -1.6780 Ca        1 MOL      1.618692
    181 O27        -8.1590   -1.3530   -4.2740 oh        1 MOL     -0.808905
    182 H81        -7.8620   -0.4600   -4.4470 ho        1 MOL      0.373155
    183 H82        -7.6740   -1.8850   -4.9030 ho        1 MOL      0.373155
    184 O28       -10.3550   -2.8950   -3.5130 oh        1 MOL     -0.808905
    185 H83       -10.9690   -2.3100   -3.9600 ho        1 MOL      0.373155
    186 H84       -10.7200   -3.7700   -3.6510 ho        1 MOL      0.373155
    187 O29        -8.8060   -4.4830   -1.8870 oh        1 MOL     -0.808905
    188 H85        -9.1850   -5.3540   -1.9190 ho        1 MOL      0.373155
    189 H86        -7.8680   -4.6320   -1.7510 ho        1 MOL      0.373155
    190 O30       -10.4160    0.3750   -2.4310 oh        1 MOL     -0.808905
    191 H87       -11.3620    0.2740   -2.5580 ho        1 MOL      0.373155
    192 H88       -10.2510    1.2990   -2.6210 ho        1 MOL      0.373155
@<TRIPOS>BOND
     1    1    2 1   
     2    1    4 1   
     3    1    5 1   
     4    1    6 1   
     5    2    3 2   
     6    2    7 1   
     7    7    8 1   
     8    7   15 1   
     9    8    9 1   
    10    8   11 1   
    11    8   16 1   
    12    9   10 2   
    13    9   19 1   
    14   11   12 1   
    15   11   17 1   
    16   11   18 1   
    17   12   13 1   
    18   12   14 1   
    19   19   20 1   
    20   19   27 1   
    21   20   21 1   
    22   20   23 1   
    23   20   28 1   
    24   21   22 2   
    25   21   38 1   
    26   23   24 1   
    27   23   25 1   
    28   23   29 1   
    29   24   26 1   
    30   24   30 1   
    31   24   31 1   
    32   25   32 1   
    33   25   33 1   
    34   25   34 1   
    35   26   35 1   
    36   26   36 1   
    37   26   37 1   
    38   38   39 1   
    39   38   46 1   
    40   39   40 1   
    41   39   42 1   
    42   39   47 1   
    43   40   41 2   
    44   40   50 1   
    45   42   43 1   
    46   42   48 1   
    47   42   49 1   
    48   43   44 1   
    49   43   45 1   
    50   50   51 1   
    51   50   54 1   
    52   51   52 1   
    53   51   55 1   
    54   51   56 1   
    55   52   53 2   
    56   52   57 1   
    57   57   58 1   
    58   57   65 1   
    59   58   59 1   
    60   58   61 1   
    61   58   66 1   
    62   59   60 2   
    63   59   69 1   
    64   61   62 1   
    65   61   67 1   
    66   61   68 1   
    67   62   63 1   
    68   62   64 1   
    69   69   70 1   
    70   69   73 1   
    71   70   71 1   
    72   70   74 1   
    73   70   75 1   
    74   71   72 2   
    75   71   76 1   
    76   76   77 1   
    77   76   85 1   
    78   77   78 1   
    79   77   80 1   
    80   77   86 1   
    81   78   79 2   
    82   78   93 1   
    83   80   81 1   
    84   80   87 1   
    85   80   88 1   
    86   81   82 1   
    87   81   89 1   
    88   81   90 1   
    89   82   83 1   
    90   82   84 2   
    91   83   91 1   
    92   83   92 1   
    93   93   94 1   
    94   93  100 1   
    95   94   95 1   
    96   94   97 1   
    97   94  101 1   
    98   95   96 2   
    99   95  109 1   
   100   97   98 1   
   101   97   99 1   
   102   97  102 1   
   103   98  103 1   
   104   98  104 1   
   105   98  105 1   
   106   99  106 1   
   107   99  107 1   
   108   99  108 1   
   109  109  110 1   
   110  109  117 1   
   111  110  111 1   
   112  110  113 1   
   113  110  118 1   
   114  111  112 2   
   115  111  123 1   
   116  113  114 1   
   117  113  119 1   
   118  113  120 1   
   119  114  115 1   
   120  114  116 2   
   121  115  121 1   
   122  115  122 1   
   123  123  124 1   
   124  123  135 1   
   125  124  125 1   
   126  124  127 1   
   127  124  136 1   
   128  125  126 2   
   129  125  144 1   
   130  127  128 1   
   131  127  137 1   
   132  127  138 1   
   133  128  129 ar  
   134  128  130 ar  
   135  129  131 ar  
   136  129  139 1   
   137  130  132 ar  
   138  130  140 1   
   139  131  133 ar  
   140  131  141 1   
   141  132  133 ar  
   142  132  142 1   
   143  133  134 1   
   144  134  143 1   
   145  144  145 1   
   146  144  153 1   
   147  145  146 1   
   148  145  148 1   
   149  145  154 1   
   150  146  147 2   
   151  146  159 1   
   152  148  149 1   
   153  148  155 1   
   154  148  156 1   
   155  149  150 1   
   156  149  157 1   
   157  149  158 1   
   158  150  151 1   
   159  150  152 1   
   160  159  160 1   
   161  159  168 1   
   162  160  161 1   
   163  160  163 1   
   164  160  169 1   
   165  161  162 2   
   166  161  174 1   
   167  163  164 1   
   168  163  170 1   
   169  163  171 1   
   170  164  165 1   
   171  164  172 1   
   172  164  173 1   
   173  165  166 1   
   174  165  167 1   
   175  174  175 1   
   176  174  179 1   
   177  175  176 1   
   178  175  177 1   
   179  175  178 1   
   180  181  182 1   
   181  181  183 1   
   182  184  185 1   
   183  184  186 1   
   184  187  188 1   
   185  187  189 1   
   186  190  191 1   
   187  190  192 1   
@<TRIPOS>SUBSTRUCTURE
     1 MOL         1 TEMP              0 ****  ****    0 ROOT
