@<TRIPOS>MOLECULE
MOL
  185   180     1     0     0
SMALL
resp


@<TRIPOS>ATOM
      1 C1         -5.5310    0.7560   -3.8850 c3        1 MOL     -0.513045
      2 C2         -6.2050    0.7900   -2.5310 c         1 MOL      0.632110
      3 O1         -5.5900    0.8570   -1.4830 o         1 MOL     -0.541128
      4 H1         -4.7780    1.5430   -3.9350 hc        1 MOL      0.138712
      5 H2         -5.0540   -0.2130   -4.0300 hc        1 MOL      0.138712
      6 H3         -6.2750    0.9160   -4.6660 hc        1 MOL      0.138712
      7 N1         -7.5550    0.8890   -2.4640 n         1 MOL     -0.551554
      8 C3         -8.4700    1.1760   -1.2920 c3        1 MOL      0.283213
      9 C4         -8.3350    0.0750   -0.1590 c         1 MOL      0.107182
     10 O2         -8.8690    0.1820    0.9300 o         1 MOL     -0.411251
     11 C5         -8.2680    2.6000   -0.6970 c3        1 MOL     -0.325314
     12 C6         -9.4390    3.1260    0.2110 c         1 MOL      0.702135
     13 O3        -10.5740    2.5330    0.2210 o         1 MOL     -0.662092
     14 O4         -9.2210    4.2040    0.7900 o         1 MOL     -0.662092
     15 H4         -7.9960    0.8940   -3.3680 hn        1 MOL      0.286241
     16 H5         -9.4240    1.1180   -1.7960 h1        1 MOL      0.018269
     17 H6         -8.0960    3.3010   -1.5170 hc        1 MOL      0.115451
     18 H7         -7.4640    2.5240    0.0270 hc        1 MOL      0.115451
     19 N2         -7.6380   -1.0320   -0.4300 n         1 MOL      0.023870
     20 C7         -7.5130   -2.2370    0.4160 c3        1 MOL     -0.008278
     21 C8         -6.0340   -2.6070    0.5620 c         1 MOL      0.704954
     22 O5         -5.6800   -3.7490    0.3980 o         1 MOL     -0.608418
     23 C9         -8.3490   -3.4410   -0.0690 c3        1 MOL      0.056090
     24 C10        -9.7820   -3.0180   -0.2040 c3        1 MOL      0.187589
     25 C11       -10.5780   -4.2190   -0.6760 c3        1 MOL     -0.177114
     26 C12       -12.0590   -3.9540   -0.3940 c3        1 MOL     -0.000247
     27 N3        -12.9080   -5.1040   -0.6530 n4        1 MOL     -0.074569
     28 H8         -7.4180   -1.2310   -1.3930 hn        1 MOL      0.088475
     29 H9         -7.9350   -2.0850    1.4100 h1        1 MOL      0.052620
     30 H10        -8.2360   -4.2930    0.6000 hc        1 MOL     -0.015779
     31 H11        -8.0560   -3.8120   -1.0520 hc        1 MOL     -0.015779
     32 H12        -9.8650   -2.3020   -1.0160 hc        1 MOL     -0.018978
     33 H13       -10.1180   -2.5640    0.7280 hc        1 MOL     -0.018978
     34 H14       -10.2230   -5.0980   -0.1340 hc        1 MOL      0.054892
     35 H15       -10.3230   -4.3300   -1.7260 hc        1 MOL      0.054892
     36 H16       -12.4620   -3.1700   -1.0330 hx        1 MOL      0.087593
     37 H17       -12.2000   -3.7040    0.6550 hx        1 MOL      0.087593
     38 H18       -12.6670   -5.8200    0.0130 hn        1 MOL      0.213921
     39 H19       -13.9020   -4.9280   -0.5850 hn        1 MOL      0.213921
     40 H20       -12.6390   -5.5670   -1.5120 hn        1 MOL      0.213921
     41 N4         -5.1310   -1.6800    0.9230 n         1 MOL     -0.745026
     42 C13        -3.6680   -1.9990    0.9460 c3        1 MOL      0.110057
     43 C14        -3.1160   -2.1490    2.3220 c         1 MOL      0.621805
     44 O6         -3.1910   -1.1900    3.1670 o         1 MOL     -0.532239
     45 C15        -2.9610   -0.9290    0.1210 c3        1 MOL     -0.035796
     46 C16        -1.5070   -1.1740   -0.2910 c         1 MOL      0.653527
     47 O7         -0.6840   -1.8580    0.3840 o         1 MOL     -0.773519
     48 O8         -1.1190   -0.5300   -1.3090 o         1 MOL     -0.773519
     49 H21        -5.4610   -0.7430    1.0970 hn        1 MOL      0.372807
     50 H22        -3.4280   -2.9560    0.4860 h1        1 MOL      0.057318
     51 H23        -3.0550    0.0590    0.5560 hc        1 MOL      0.085733
     52 H24        -3.4790   -0.8310   -0.8360 hc        1 MOL      0.085733
     53 N5         -2.5470   -3.2910    2.6430 n         1 MOL     -0.395562
     54 C17        -2.0410   -3.5240    4.0200 c3        1 MOL     -0.237794
     55 C18        -0.9490   -2.5590    4.4860 c         1 MOL      0.543425
     56 O9         -0.8290   -2.4260    5.6880 o         1 MOL     -0.540324
     57 H25        -2.2120   -3.8470    1.8680 hn        1 MOL      0.300023
     58 H26        -1.6320   -4.5420    4.0500 h1        1 MOL      0.147839
     59 H27        -2.8220   -3.3900    4.7560 h1        1 MOL      0.147839
     60 N6         -0.2030   -1.9460    3.6020 n         1 MOL     -0.388575
     61 C19         0.6830   -0.8710    3.8530 c3        1 MOL      0.124810
     62 C20         0.2140    0.4770    3.3380 c         1 MOL      0.320663
     63 O10         0.9650    1.4120    3.3320 o         1 MOL     -0.452571
     64 C21         2.1460   -1.2510    3.4120 c3        1 MOL     -0.197490
     65 C22         2.1940   -1.8030    1.9960 c         1 MOL      0.419262
     66 N7          2.2570   -3.0960    1.8180 n         1 MOL     -0.640598
     67 O11         2.3380   -1.1430    1.0060 o         1 MOL     -0.549058
     68 H28        -0.3360   -2.1740    2.6230 hn        1 MOL      0.289043
     69 H29         0.7490   -0.6880    4.9330 h1        1 MOL      0.096801
     70 H30         2.4050   -2.0490    4.1100 hc        1 MOL      0.090392
     71 H31         2.8460   -0.4420    3.6280 hc        1 MOL      0.090392
     72 H32         2.1250   -3.7590    2.5730 hn        1 MOL      0.327611
     73 H33         2.4690   -3.3840    0.8730 hn        1 MOL      0.327611
     74 N8         -1.0390    0.6770    2.9830 n         1 MOL      0.031017
     75 C23        -1.6820    2.0160    2.8890 c3        1 MOL     -0.389982
     76 C24        -1.3330    2.8270    1.7240 c         1 MOL      0.522446
     77 O12        -1.8080    4.0220    1.7040 o         1 MOL     -0.505736
     78 H34        -1.7120   -0.0620    2.8740 hn        1 MOL      0.064765
     79 H35        -1.6630    2.5990    3.8120 h1        1 MOL      0.178070
     80 H36        -2.7170    1.7400    2.6860 h1        1 MOL      0.178070
     81 N9         -0.6290    2.3080    0.6910 n         1 MOL     -0.286850
     82 C25        -0.1000    3.0810   -0.4350 c3        1 MOL      0.075150
     83 C26         1.3320    2.5480   -0.8870 c         1 MOL      0.544659
     84 O13         1.5240    1.3210   -0.8600 o         1 MOL     -0.509065
     85 C27        -1.1430    3.1310   -1.6000 c3        1 MOL      0.071106
     86 C28        -2.2110    4.0940   -1.4520 ca        1 MOL     -0.173267
     87 C29        -1.8940    5.4300   -1.6820 ca        1 MOL     -0.007136
     88 C30        -3.5510    3.7560   -1.1490 ca        1 MOL     -0.007136
     89 C31        -2.8990    6.4290   -1.5820 ca        1 MOL     -0.371408
     90 C32        -4.5470    4.7480   -1.0280 ca        1 MOL     -0.371408
     91 C33        -4.2260    6.0830   -1.1630 ca        1 MOL      0.476191
     92 O14        -5.2250    6.9820   -1.0830 oh        1 MOL     -0.527096
     93 H37        -0.3880    1.3250    0.7310 hn        1 MOL      0.178384
     94 H38         0.0200    4.0740   -0.0200 h1        1 MOL      0.025517
     95 H39        -1.5930    2.1490   -1.6850 hc        1 MOL      0.006119
     96 H40        -0.5330    3.3240   -2.4850 hc        1 MOL      0.006119
     97 H41        -0.9070    5.7530   -1.9820 ha        1 MOL      0.089598
     98 H42        -3.6760    2.7040   -0.9910 ha        1 MOL      0.089598
     99 H43        -2.7010    7.4820   -1.7020 ha        1 MOL      0.160778
    100 H44        -5.5440    4.4700   -0.7270 ha        1 MOL      0.160778
    101 H45        -5.9560    6.4820   -0.7120 ho        1 MOL      0.394393
    102 N10         2.3350    3.3880   -1.0770 n         1 MOL     -0.594495
    103 C34         3.6810    2.8600   -1.4630 c3        1 MOL     -0.051137
    104 C35         4.4390    2.3440   -0.2070 c         1 MOL      0.307350
    105 O15         5.1710    1.3240   -0.1930 o         1 MOL     -0.398379
    106 C36         4.5680    3.9010   -2.1630 c3        1 MOL      0.161788
    107 C37         3.8020    4.4320   -3.4050 c3        1 MOL     -0.046986
    108 C38         5.9100    3.2540   -2.6580 c3        1 MOL     -0.262379
    109 C39         3.0700    3.3940   -4.3480 c3        1 MOL     -0.214582
    110 H46         2.1320    4.3540   -1.2900 hn        1 MOL      0.361139
    111 H47         3.6610    1.9820   -2.1000 h1        1 MOL      0.138625
    112 H48         4.8700    4.7910   -1.6170 hc        1 MOL     -0.000492
    113 H49         4.5070    5.0560   -3.9610 hc        1 MOL      0.014300
    114 H50         2.9700    5.0470   -3.0800 hc        1 MOL      0.014300
    115 H51         5.6220    2.2520   -2.9820 hc        1 MOL      0.084125
    116 H52         6.3310    3.8240   -3.4940 hc        1 MOL      0.084125
    117 H53         6.6270    3.3470   -1.8450 hc        1 MOL      0.084125
    118 H54         3.5550    2.4180   -4.2820 hc        1 MOL      0.074069
    119 H55         2.0970    3.1230   -3.9430 hc        1 MOL      0.074069
    120 H56         2.9320    3.7830   -5.3620 hc        1 MOL      0.074069
    121 N11         4.2250    3.0310    0.9100 n         1 MOL     -0.245217
    122 C40         4.5120    2.5160    2.1950 c3        1 MOL      0.089659
    123 C41         6.0240    2.3410    2.4910 c         1 MOL      0.172636
    124 O16         6.3830    1.7470    3.5500 o         1 MOL     -0.432659
    125 C42         3.8310    3.3770    3.2730 c3        1 MOL      0.096081
    126 O17         2.5220    3.5910    2.9120 oh        1 MOL     -0.541528
    127 H57         3.6190    3.8320    0.8670 hn        1 MOL      0.267375
    128 H58         4.0990    1.5100    2.3260 h1        1 MOL      0.126276
    129 H59         4.2430    4.3870    3.3470 h1        1 MOL      0.061474
    130 H60         3.8080    2.7100    4.1330 h1        1 MOL      0.061474
    131 H61         2.1160    2.7490    3.1210 ho        1 MOL      0.350756
    132 N12         6.9350    2.8590    1.6080 n         1 MOL     -0.297165
    133 C43         8.3680    2.2810    1.5220 c3        1 MOL      0.254799
    134 C44         8.4110    0.7770    1.6980 c         1 MOL      0.418242
    135 O18         9.1560    0.2100    2.4260 o         1 MOL     -0.502718
    136 C45         9.1770    3.0170    2.5250 c3        1 MOL     -0.347521
    137 H62         6.6700    3.5850    0.9600 hn        1 MOL      0.230031
    138 H63         8.7590    2.4860    0.5290 h1        1 MOL      0.025056
    139 H64         8.8480    2.9770    3.5720 hc        1 MOL      0.095316
    140 H65        10.1280    2.5020    2.6420 hc        1 MOL      0.095316
    141 H66         9.3240    4.0700    2.3050 hc        1 MOL      0.095316
    142 N13         7.6040    0.0420    0.9790 n         1 MOL     -0.280507
    143 C46         7.4990   -1.3800    0.9280 c3        1 MOL      0.293307
    144 C47         7.1100   -1.8890   -0.4650 c         1 MOL      0.394225
    145 O19         6.7190   -1.1130   -1.2730 o         1 MOL     -0.461689
    146 C48         6.5120   -1.8150    1.9560 c3        1 MOL     -0.357800
    147 H67         7.0210    0.5270    0.3090 hn        1 MOL      0.076975
    148 H68         8.4980   -1.7710    1.1310 h1        1 MOL     -0.006348
    149 H69         6.5850   -2.9050    2.0760 hc        1 MOL      0.106635
    150 H70         6.6060   -1.3270    2.9190 hc        1 MOL      0.106635
    151 H71         5.5110   -1.6090    1.5820 hc        1 MOL      0.106635
    152 N14         7.0570   -3.2300   -0.5250 n         1 MOL     -0.501210
    153 C49         6.7510   -4.0780   -1.7340 c3        1 MOL     -0.174784
    154 C50         7.5710   -3.7660   -3.0750 c         1 MOL      0.438724
    155 O20         7.1300   -4.0560   -4.1170 o         1 MOL     -0.474571
    156 C51         5.2060   -4.1340   -2.0120 c3        1 MOL      0.196957
    157 C52         4.5200   -4.6510   -0.7260 c3        1 MOL     -0.109547
    158 C53         3.0120   -4.8110   -1.0510 c         1 MOL      0.657959
    159 O21         2.6140   -5.8940   -1.5740 o         1 MOL     -0.677886
    160 O22         2.2560   -3.8440   -0.8530 o         1 MOL     -0.677886
    161 H72         7.3160   -3.7330    0.3110 hn        1 MOL      0.337454
    162 H73         7.0060   -5.0900   -1.4290 h1        1 MOL      0.117449
    163 H74         4.8760   -4.7170   -2.8700 hc        1 MOL      0.009992
    164 H75         4.8590   -3.1130   -2.1930 hc        1 MOL      0.009992
    165 H76         4.5580   -3.8260   -0.0170 hc        1 MOL     -0.006332
    166 H77         4.9590   -5.5760   -0.3390 hc        1 MOL     -0.006332
    167 N15         8.7410   -3.1180   -2.9410 n         1 MOL     -0.205602
    168 C54         9.6140   -2.5300   -3.9820 c3        1 MOL     -0.169421
    169 H78        10.0460   -1.6010   -3.6110 h1        1 MOL      0.093380
    170 H79        10.4140   -3.2300   -4.2240 h1        1 MOL      0.093380
    171 H80         9.0260   -2.3260   -4.8770 h1        1 MOL      0.093380
    172 H81         9.1010   -3.1140   -1.9940 hn        1 MOL      0.205321
    173 Ca1         1.3550   -1.3940   -1.4230 Ca        1 MOL      1.767066
    174 O23         0.4300    0.2120   -3.3800 oh        1 MOL     -0.840362
    175 H82         0.1880    0.8670   -4.0350 ho        1 MOL      0.402883
    176 H83        -0.3880    0.0330   -2.9030 ho        1 MOL      0.402883
    177 O24         3.9870   -0.8040   -1.3340 oh        1 MOL     -0.840362
    178 H84         4.6100   -1.5330   -1.3730 ho        1 MOL      0.402883
    179 H85         4.4910   -0.0860   -0.9490 ho        1 MOL      0.402883
    180 O25         2.4490   -2.2320   -3.7150 oh        1 MOL     -0.840362
    181 H86         2.0220   -1.9650   -4.5210 ho        1 MOL      0.402883
    182 H87         2.7560   -3.1210   -3.8850 ho        1 MOL      0.402883
    183 O26         0.1840   -3.7210   -2.5900 oh        1 MOL     -0.840362
    184 H88         0.7530   -4.3660   -2.1740 ho        1 MOL      0.402883
    185 H89         0.0430   -4.0510   -3.4690 ho        1 MOL      0.402883
@<TRIPOS>BOND
     1    1    2 1   
     2    1    4 1   
     3    1    5 1   
     4    1    6 1   
     5    2    3 2   
     6    2    7 1   
     7    7    8 1   
     8    7   15 1   
     9    8    9 1   
    10    8   11 1   
    11    8   16 1   
    12    9   10 2   
    13    9   19 1   
    14   11   12 1   
    15   11   17 1   
    16   11   18 1   
    17   12   13 1   
    18   12   14 1   
    19   19   20 1   
    20   19   28 1   
    21   20   21 1   
    22   20   23 1   
    23   20   29 1   
    24   21   22 2   
    25   21   41 1   
    26   23   24 1   
    27   23   30 1   
    28   23   31 1   
    29   24   25 1   
    30   24   32 1   
    31   24   33 1   
    32   25   26 1   
    33   25   34 1   
    34   25   35 1   
    35   26   27 1   
    36   26   36 1   
    37   26   37 1   
    38   27   38 1   
    39   27   39 1   
    40   27   40 1   
    41   41   42 1   
    42   41   49 1   
    43   42   43 1   
    44   42   45 1   
    45   42   50 1   
    46   43   44 2   
    47   43   53 1   
    48   45   46 1   
    49   45   51 1   
    50   45   52 1   
    51   46   47 1   
    52   46   48 1   
    53   53   54 1   
    54   53   57 1   
    55   54   55 1   
    56   54   58 1   
    57   54   59 1   
    58   55   56 2   
    59   55   60 1   
    60   60   61 1   
    61   60   68 1   
    62   61   62 1   
    63   61   64 1   
    64   61   69 1   
    65   62   63 2   
    66   62   74 1   
    67   64   65 1   
    68   64   70 1   
    69   64   71 1   
    70   65   66 1   
    71   65   67 2   
    72   66   72 1   
    73   66   73 1   
    74   74   75 1   
    75   74   78 1   
    76   75   76 1   
    77   75   79 1   
    78   75   80 1   
    79   76   77 2   
    80   76   81 1   
    81   81   82 1   
    82   81   93 1   
    83   82   83 1   
    84   82   85 1   
    85   82   94 1   
    86   83   84 2   
    87   83  102 1   
    88   85   86 1   
    89   85   95 1   
    90   85   96 1   
    91   86   87 ar  
    92   86   88 ar  
    93   87   89 ar  
    94   87   97 1   
    95   88   90 ar  
    96   88   98 1   
    97   89   91 ar  
    98   89   99 1   
    99   90   91 ar  
   100   90  100 1   
   101   91   92 1   
   102   92  101 1   
   103  102  103 1   
   104  102  110 1   
   105  103  104 1   
   106  103  106 1   
   107  103  111 1   
   108  104  105 2   
   109  104  121 1   
   110  106  107 1   
   111  106  108 1   
   112  106  112 1   
   113  107  109 1   
   114  107  113 1   
   115  107  114 1   
   116  108  115 1   
   117  108  116 1   
   118  108  117 1   
   119  109  118 1   
   120  109  119 1   
   121  109  120 1   
   122  121  122 1   
   123  121  127 1   
   124  122  123 1   
   125  122  125 1   
   126  122  128 1   
   127  123  124 2   
   128  123  132 1   
   129  125  126 1   
   130  125  129 1   
   131  125  130 1   
   132  126  131 1   
   133  132  133 1   
   134  132  137 1   
   135  133  134 1   
   136  133  136 1   
   137  133  138 1   
   138  134  135 2   
   139  134  142 1   
   140  136  139 1   
   141  136  140 1   
   142  136  141 1   
   143  142  143 1   
   144  142  147 1   
   145  143  144 1   
   146  143  146 1   
   147  143  148 1   
   148  144  145 2   
   149  144  152 1   
   150  146  149 1   
   151  146  150 1   
   152  146  151 1   
   153  152  153 1   
   154  152  161 1   
   155  153  154 1   
   156  153  156 1   
   157  153  162 1   
   158  154  155 2   
   159  154  167 1   
   160  156  157 1   
   161  156  163 1   
   162  156  164 1   
   163  157  158 1   
   164  157  165 1   
   165  157  166 1   
   166  158  159 1   
   167  158  160 1   
   168  167  168 1   
   169  167  172 1   
   170  168  169 1   
   171  168  170 1   
   172  168  171 1   
   173  174  175 1   
   174  174  176 1   
   175  177  178 1   
   176  177  179 1   
   177  180  181 1   
   178  180  182 1   
   179  183  184 1   
   180  183  185 1   
@<TRIPOS>SUBSTRUCTURE
     1 MOL         1 TEMP              0 ****  ****    0 ROOT
