@<TRIPOS>MOLECULE
MOL
  189   185     1     0     0
SMALL
resp


@<TRIPOS>ATOM
      1 C1          4.0740    4.4490   -3.7510 c3        1 MOL     -0.313996
      2 C2          4.8320    3.6810   -2.6300 c         1 MOL      0.805688
      3 O1          4.3700    3.5510   -1.5040 o         1 MOL     -0.648650
      4 H1          4.6930    5.2720   -4.1090 hc        1 MOL      0.076910
      5 H2          3.8610    3.7700   -4.5760 hc        1 MOL      0.076910
      6 H3          3.1390    4.8430   -3.3520 hc        1 MOL      0.076910
      7 N1          5.9890    3.1310   -3.0330 n         1 MOL     -0.645412
      8 C3          6.8290    2.1860   -2.2390 c3        1 MOL      0.232422
      9 C4          6.0800    0.8950   -1.7460 c         1 MOL      0.477335
     10 O2          5.7140    0.7550   -0.6240 o         1 MOL     -0.527955
     11 C5          7.7480    2.7660   -1.0800 c3        1 MOL     -0.387448
     12 C6          7.1290    3.8690   -0.2200 c         1 MOL      0.839365
     13 O3          6.3210    3.6420    0.6810 o         1 MOL     -0.732783
     14 O4          7.4790    5.0290   -0.3130 o         1 MOL     -0.732783
     15 H4          6.2230    3.1660   -4.0180 hn        1 MOL      0.317363
     16 H5          7.4420    1.8190   -3.0610 h1        1 MOL      0.033771
     17 H6          8.6990    3.1430   -1.4640 hc        1 MOL      0.081387
     18 H7          8.0820    1.9820   -0.3990 hc        1 MOL      0.081387
     19 N2          5.9010   -0.1200   -2.6670 n         1 MOL     -0.713436
     20 C7          5.2500   -1.4490   -2.6130 c3        1 MOL      0.467587
     21 C8          6.0740   -2.4070   -1.7370 c         1 MOL      0.275265
     22 O5          6.5760   -3.4000   -2.1930 o         1 MOL     -0.569629
     23 C9          3.6750   -1.3910   -2.4770 c3        1 MOL      0.286495
     24 C10         3.0490   -2.7610   -2.6360 c3        1 MOL     -0.158547
     25 C11         3.1430   -0.4850   -3.6090 c3        1 MOL     -0.655086
     26 C12         3.0000   -3.3540   -3.9970 c3        1 MOL     -0.391533
     27 H8          6.4030    0.0420   -3.5220 hn        1 MOL      0.300335
     28 H9          5.4570   -1.8460   -3.6100 h1        1 MOL     -0.019622
     29 H10         3.3390   -0.8680   -1.5810 hc        1 MOL     -0.114641
     30 H11         2.0150   -2.7250   -2.3050 hc        1 MOL      0.121941
     31 H12         3.5730   -3.5280   -2.0540 hc        1 MOL      0.121941
     32 H13         3.5030   -0.8090   -4.5920 hc        1 MOL      0.159828
     33 H14         2.0640   -0.4560   -3.4890 hc        1 MOL      0.159828
     34 H15         3.4810    0.5200   -3.3650 hc        1 MOL      0.159828
     35 H16         3.9520   -3.1730   -4.4960 hc        1 MOL      0.088157
     36 H17         2.8750   -4.4120   -3.8110 hc        1 MOL      0.088157
     37 H18         2.1300   -2.9040   -4.4800 hc        1 MOL      0.088157
     38 N3          6.2660   -2.0180   -0.4670 n         1 MOL     -0.034758
     39 C13         7.3010   -2.7340    0.2820 c3        1 MOL      0.231718
     40 C14         6.9260   -4.2060    0.7100 c         1 MOL      0.515044
     41 O6          7.7900   -5.0840    0.6160 o         1 MOL     -0.531872
     42 C15         7.7340   -1.7700    1.4190 c3        1 MOL     -0.343475
     43 C16         8.9400   -2.3650    2.1530 c         1 MOL      0.640384
     44 O7         10.1150   -2.1930    1.7210 o         1 MOL     -0.700581
     45 O8          8.7120   -3.1530    3.1190 o         1 MOL     -0.700581
     46 H19         5.9600   -1.1090   -0.1430 hn        1 MOL      0.148689
     47 H20         8.2260   -2.6990   -0.2900 h1        1 MOL      0.007201
     48 H21         6.9350   -1.5490    2.1200 hc        1 MOL      0.067529
     49 H22         8.0670   -0.8830    0.8730 hc        1 MOL      0.067529
     50 N4          5.6860   -4.4470    1.2280 n         1 MOL     -0.559181
     51 C17         4.5690   -3.4790    1.3400 c3        1 MOL      0.116216
     52 C18         3.2400   -4.1490    1.7620 c         1 MOL      0.600901
     53 O9          3.1030   -5.2990    1.3500 o         1 MOL     -0.578860
     54 H23         5.5310   -5.3550    1.6460 hn        1 MOL      0.316689
     55 H24         4.2720   -3.0400    0.3860 h1        1 MOL     -0.002058
     56 H25         4.8850   -2.7200    2.0500 h1        1 MOL     -0.002058
     57 N5          2.3000   -3.5110    2.4520 n         1 MOL     -0.615123
     58 C19         2.3890   -2.1430    2.9290 c3        1 MOL      0.280890
     59 C20         2.5330   -1.1100    1.8250 c         1 MOL      0.239975
     60 O10         3.5490   -0.4340    1.7710 o         1 MOL     -0.539279
     61 C21         3.3340   -1.9360    4.1590 c3        1 MOL     -0.148547
     62 C22         2.9050   -0.8390    5.1100 c         1 MOL      0.673407
     63 O11         3.6190   -0.6250    6.1090 o         1 MOL     -0.707420
     64 O12         1.8440   -0.2120    4.8410 o         1 MOL     -0.707420
     65 H26         1.3570   -3.8490    2.3350 hn        1 MOL      0.312037
     66 H27         1.4280   -1.9390    3.3950 h1        1 MOL      0.023905
     67 H28         4.3740   -1.7360    3.8970 hc        1 MOL      0.052052
     68 H29         3.2640   -2.9000    4.6480 hc        1 MOL      0.052052
     69 N6          1.5410   -0.8080    0.9380 n         1 MOL     -0.206274
     70 C23         0.1220   -1.3190    0.9690 c3        1 MOL     -0.129876
     71 C24        -0.3390   -2.7150    0.3940 c         1 MOL      0.522888
     72 O13         0.3550   -3.2630   -0.4010 o         1 MOL     -0.488061
     73 H30         1.7410   -0.0280    0.3230 hn        1 MOL      0.288455
     74 H31        -0.3930   -0.5350    0.4130 h1        1 MOL      0.052125
     75 H32        -0.2340   -1.2530    1.9990 h1        1 MOL      0.052125
     76 N7         -1.4230   -3.2570    0.8830 n         1 MOL     -0.466614
     77 C25        -1.9920   -4.5050    0.3660 c3        1 MOL      0.025497
     78 C26        -2.5530   -4.3390   -1.0880 c         1 MOL      0.246804
     79 O14        -2.6590   -5.3840   -1.7550 o         1 MOL     -0.513246
     80 C27        -3.1060   -5.0640    1.2890 c3        1 MOL      0.263088
     81 C28        -4.5580   -4.7330    1.0930 c3        1 MOL     -0.225644
     82 C29        -4.9480   -3.3580    1.5280 c         1 MOL      0.474730
     83 N8         -5.6480   -3.0790    2.6950 n         1 MOL     -0.642801
     84 O15        -4.6440   -2.3390    0.9460 o         1 MOL     -0.423245
     85 H33        -1.9580   -2.6530    1.5000 hn        1 MOL      0.273568
     86 H34        -1.2400   -5.2860    0.2970 h1        1 MOL      0.145323
     87 H35        -2.8360   -4.9710    2.3400 hc        1 MOL     -0.045463
     88 H36        -2.9710   -6.1390    1.2050 hc        1 MOL     -0.045463
     89 H37        -5.0280   -5.3280    1.8640 hc        1 MOL      0.091244
     90 H38        -5.0080   -5.0760    0.1600 hc        1 MOL      0.091244
     91 H39        -5.7480   -3.8920    3.2980 hn        1 MOL      0.324183
     92 H40        -5.4070   -2.1820    3.0880 hn        1 MOL      0.324183
     93 N9         -2.9000   -3.1910   -1.6370 n         1 MOL     -0.042396
     94 C30        -3.4300   -2.9870   -3.0370 c3        1 MOL     -0.145425
     95 C31        -4.8460   -2.3370   -3.0960 c         1 MOL      0.361432
     96 O16        -5.3820   -2.2460   -4.2050 o         1 MOL     -0.550033
     97 C32        -2.4500   -2.2020   -3.9090 c3        1 MOL      0.229539
     98 C33        -1.1110   -2.8420   -4.0560 c3        1 MOL     -0.260644
     99 C34        -2.0870   -0.8250   -3.2790 c3        1 MOL     -0.260644
    100 H41        -2.7930   -2.3350   -1.1020 hn        1 MOL      0.191062
    101 H42        -3.5270   -3.9460   -3.5320 h1        1 MOL      0.131803
    102 H43        -2.8660   -1.9260   -4.8740 hc        1 MOL      0.005840
    103 H44        -0.5410   -3.0410   -3.1440 hc        1 MOL      0.065817
    104 H45        -1.3350   -3.8130   -4.5020 hc        1 MOL      0.065817
    105 H46        -0.3740   -2.3860   -4.7220 hc        1 MOL      0.065817
    106 H47        -1.4580   -0.9110   -2.3990 hc        1 MOL      0.065817
    107 H48        -1.4680   -0.3300   -4.0240 hc        1 MOL      0.065817
    108 H49        -2.9890   -0.2330   -3.1100 hc        1 MOL      0.065817
    109 N10        -5.5000   -1.9250   -1.9980 n         1 MOL     -0.003916
    110 C35        -6.7970   -1.3440   -2.0580 c3        1 MOL      0.010159
    111 C36        -6.8000    0.0150   -1.4170 c         1 MOL      0.465845
    112 O17        -7.8820    0.6170   -1.4920 o         1 MOL     -0.537321
    113 C37        -7.7810   -2.1840   -1.3200 c3        1 MOL     -0.054291
    114 C38        -7.7550   -3.6820   -1.7480 c         1 MOL      0.524625
    115 N11        -7.8960   -3.9390   -3.0120 n         1 MOL     -0.707590
    116 O18        -7.6970   -4.6210   -0.9350 o         1 MOL     -0.562027
    117 H50        -5.1290   -2.1460   -1.0830 hn        1 MOL      0.008338
    118 H51        -7.1190   -1.2520   -3.0960 h1        1 MOL      0.071821
    119 H52        -8.7690   -1.8060   -1.5840 hc        1 MOL      0.058585
    120 H53        -7.6770   -2.1640   -0.2340 hc        1 MOL      0.058585
    121 H54        -7.9550   -3.2520   -3.7510 hn        1 MOL      0.352103
    122 H55        -7.8840   -4.9240   -3.2550 hn        1 MOL      0.352103
    123 N12        -5.7580    0.4300   -0.6330 n         1 MOL     -0.461584
    124 C39        -5.7950    1.6460    0.2800 c3        1 MOL      0.395647
    125 C40        -4.4670    2.3990    0.2210 c         1 MOL      0.226312
    126 O19        -3.4710    1.8300   -0.1450 o         1 MOL     -0.375274
    127 C41        -6.2080    1.3100    1.7120 c3        1 MOL      0.065527
    128 C42        -7.6070    0.8580    1.9680 ca        1 MOL     -0.075656
    129 C43        -8.6740    1.8000    2.1160 ca        1 MOL     -0.112108
    130 C44        -7.8160   -0.5630    2.1090 ca        1 MOL     -0.112108
    131 C45        -9.9170    1.1770    2.4820 ca        1 MOL     -0.270724
    132 C46        -9.0700   -1.0900    2.4490 ca        1 MOL     -0.270724
    133 C47       -10.1000   -0.2030    2.6540 ca        1 MOL      0.356575
    134 O20       -11.3210   -0.7200    3.0570 oh        1 MOL     -0.498643
    135 H56        -4.9010   -0.0930   -0.6350 hn        1 MOL      0.162366
    136 H57        -6.6350    2.2510   -0.0580 h1        1 MOL     -0.021586
    137 H58        -6.0490    2.2310    2.2770 hc        1 MOL      0.005187
    138 H59        -5.4890    0.6120    2.1480 hc        1 MOL      0.005187
    139 H60        -8.6450    2.8650    2.0010 ha        1 MOL      0.137329
    140 H61        -6.9130   -1.1210    1.9530 ha        1 MOL      0.137329
    141 H62       -10.6330    1.9020    2.8410 ha        1 MOL      0.130157
    142 H63        -9.1780   -2.1430    2.6080 ha        1 MOL      0.130157
    143 H64       -11.9800   -0.0320    3.1250 ho        1 MOL      0.345559
    144 N13        -4.4270    3.7310    0.6180 n         1 MOL     -0.431185
    145 C48        -3.2110    4.5810    0.9890 c3        1 MOL      0.218830
    146 C49        -2.2640    4.9050   -0.2070 c         1 MOL      0.259935
    147 O21        -1.6940    5.9550   -0.2600 o         1 MOL     -0.497275
    148 C50        -2.4820    3.9170    2.1620 c3        1 MOL     -0.191255
    149 C51        -3.2060    3.9890    3.5870 c3        1 MOL     -0.076017
    150 C52        -3.4620    5.4050    4.1670 c         1 MOL      0.761857
    151 O22        -4.1190    5.4750    5.2280 o         1 MOL     -0.747489
    152 O23        -3.0160    6.4350    3.6420 o         1 MOL     -0.747489
    153 H65        -5.3410    4.1570    0.6710 hn        1 MOL      0.256427
    154 H66        -3.5900    5.5240    1.3960 h1        1 MOL      0.050851
    155 H67        -1.5930    4.4850    2.4360 hc        1 MOL      0.102724
    156 H68        -2.2530    2.8700    1.9840 hc        1 MOL      0.102724
    157 H69        -2.5890    3.4800    4.3220 hc        1 MOL     -0.022280
    158 H70        -4.1770    3.4850    3.4830 hc        1 MOL     -0.022280
    159 N14        -1.9650    4.0110   -1.1160 n         1 MOL     -0.146769
    160 C53        -0.8440    4.1040   -2.1190 c3        1 MOL     -0.093141
    161 C54        -1.4040    4.8010   -3.4050 c         1 MOL      0.438444
    162 O24        -0.6490    5.1840   -4.2410 o         1 MOL     -0.533065
    163 C55        -0.3610    2.7000   -2.5100 c3        1 MOL     -0.104426
    164 C56         0.0300    1.7960   -1.3500 c3        1 MOL      0.188273
    165 C57         1.3900    2.0830   -0.6460 c         1 MOL      0.667929
    166 O25         1.5350    3.0250    0.1700 o         1 MOL     -0.713312
    167 O26         2.3430    1.3220   -0.8480 o         1 MOL     -0.713312
    168 H71        -2.3940    3.0990   -1.0360 hn        1 MOL      0.155785
    169 H72        -0.0250    4.6900   -1.7060 h1        1 MOL      0.170586
    170 H73         0.5680    2.8420   -3.0700 hc        1 MOL      0.032486
    171 H74        -1.1020    2.2210   -3.1500 hc        1 MOL      0.032486
    172 H75         0.0990    0.7750   -1.7150 hc        1 MOL     -0.070573
    173 H76        -0.6800    1.7480   -0.5200 hc        1 MOL     -0.070573
    174 N15        -2.7070    5.0460   -3.4750 n         1 MOL     -0.188249
    175 C58        -3.3760    5.7430   -4.5870 c3        1 MOL     -0.123376
    176 H77        -2.6640    5.9020   -5.3970 h1        1 MOL      0.066559
    177 H78        -4.2080    5.1380   -4.9490 h1        1 MOL      0.066559
    178 H79        -3.7510    6.7060   -4.2400 h1        1 MOL      0.066559
    179 H80        -3.2250    4.7360   -2.6620 hn        1 MOL      0.164080
    180 Ca1         4.0070    2.4500    0.8970 Ca        1 MOL      1.812029
    181 O27         3.5410    4.8980    1.8680 oh        1 MOL     -0.900674
    182 H81         2.7430    5.1720    2.3290 ho        1 MOL      0.436394
    183 H82         3.8840    5.7150    1.4950 ho        1 MOL      0.436394
    184 O28         5.7350    1.6580    2.6960 oh        1 MOL     -0.900674
    185 H83         6.5160    1.1680    2.4530 ho        1 MOL      0.436394
    186 H84         5.5550    1.3780    3.5940 ho        1 MOL      0.436394
    187 O29         2.7760    2.2320    3.3680 oh        1 MOL     -0.900674
    188 H85         2.4600    1.4690    3.8580 ho        1 MOL      0.436394
    189 H86         3.1130    2.8280    4.0400 ho        1 MOL      0.436394
@<TRIPOS>BOND
     1    1    2 1   
     2    1    4 1   
     3    1    5 1   
     4    1    6 1   
     5    2    3 2   
     6    2    7 1   
     7    7    8 1   
     8    7   15 1   
     9    8    9 1   
    10    8   11 1   
    11    8   16 1   
    12    9   10 2   
    13    9   19 1   
    14   11   12 1   
    15   11   17 1   
    16   11   18 1   
    17   12   13 1   
    18   12   14 1   
    19   19   20 1   
    20   19   27 1   
    21   20   21 1   
    22   20   23 1   
    23   20   28 1   
    24   21   22 2   
    25   21   38 1   
    26   23   24 1   
    27   23   25 1   
    28   23   29 1   
    29   24   26 1   
    30   24   30 1   
    31   24   31 1   
    32   25   32 1   
    33   25   33 1   
    34   25   34 1   
    35   26   35 1   
    36   26   36 1   
    37   26   37 1   
    38   38   39 1   
    39   38   46 1   
    40   39   40 1   
    41   39   42 1   
    42   39   47 1   
    43   40   41 2   
    44   40   50 1   
    45   42   43 1   
    46   42   48 1   
    47   42   49 1   
    48   43   44 1   
    49   43   45 1   
    50   50   51 1   
    51   50   54 1   
    52   51   52 1   
    53   51   55 1   
    54   51   56 1   
    55   52   53 2   
    56   52   57 1   
    57   57   58 1   
    58   57   65 1   
    59   58   59 1   
    60   58   61 1   
    61   58   66 1   
    62   59   60 2   
    63   59   69 1   
    64   61   62 1   
    65   61   67 1   
    66   61   68 1   
    67   62   63 1   
    68   62   64 1   
    69   69   70 1   
    70   69   73 1   
    71   70   71 1   
    72   70   74 1   
    73   70   75 1   
    74   71   72 2   
    75   71   76 1   
    76   76   77 1   
    77   76   85 1   
    78   77   78 1   
    79   77   80 1   
    80   77   86 1   
    81   78   79 2   
    82   78   93 1   
    83   80   81 1   
    84   80   87 1   
    85   80   88 1   
    86   81   82 1   
    87   81   89 1   
    88   81   90 1   
    89   82   83 1   
    90   82   84 2   
    91   83   91 1   
    92   83   92 1   
    93   93   94 1   
    94   93  100 1   
    95   94   95 1   
    96   94   97 1   
    97   94  101 1   
    98   95   96 2   
    99   95  109 1   
   100   97   98 1   
   101   97   99 1   
   102   97  102 1   
   103   98  103 1   
   104   98  104 1   
   105   98  105 1   
   106   99  106 1   
   107   99  107 1   
   108   99  108 1   
   109  109  110 1   
   110  109  117 1   
   111  110  111 1   
   112  110  113 1   
   113  110  118 1   
   114  111  112 2   
   115  111  123 1   
   116  113  114 1   
   117  113  119 1   
   118  113  120 1   
   119  114  115 1   
   120  114  116 2   
   121  115  121 1   
   122  115  122 1   
   123  123  124 1   
   124  123  135 1   
   125  124  125 1   
   126  124  127 1   
   127  124  136 1   
   128  125  126 2   
   129  125  144 1   
   130  127  128 1   
   131  127  137 1   
   132  127  138 1   
   133  128  129 ar  
   134  128  130 ar  
   135  129  131 ar  
   136  129  139 1   
   137  130  132 ar  
   138  130  140 1   
   139  131  133 ar  
   140  131  141 1   
   141  132  133 ar  
   142  132  142 1   
   143  133  134 1   
   144  134  143 1   
   145  144  145 1   
   146  144  153 1   
   147  145  146 1   
   148  145  148 1   
   149  145  154 1   
   150  146  147 2   
   151  146  159 1   
   152  148  149 1   
   153  148  155 1   
   154  148  156 1   
   155  149  150 1   
   156  149  157 1   
   157  149  158 1   
   158  150  151 1   
   159  150  152 1   
   160  159  160 1   
   161  159  168 1   
   162  160  161 1   
   163  160  163 1   
   164  160  169 1   
   165  161  162 2   
   166  161  174 1   
   167  163  164 1   
   168  163  170 1   
   169  163  171 1   
   170  164  165 1   
   171  164  172 1   
   172  164  173 1   
   173  165  166 1   
   174  165  167 1   
   175  174  175 1   
   176  174  179 1   
   177  175  176 1   
   178  175  177 1   
   179  175  178 1   
   180  181  182 1   
   181  181  183 1   
   182  184  185 1   
   183  184  186 1   
   184  187  188 1   
   185  187  189 1   
@<TRIPOS>SUBSTRUCTURE
     1 MOL         1 TEMP              0 ****  ****    0 ROOT
