@<TRIPOS>MOLECULE
MOL
  175   173     1     0     0
SMALL
resp


@<TRIPOS>ATOM
      1 C1         -6.8060    7.6380    2.1100 c3        1 MOL     -0.428863
      2 C2         -7.5550    6.9150    0.9960 c         1 MOL      0.668611
      3 O1         -7.4150    7.3050   -0.1490 o         1 MOL     -0.553552
      4 H1         -5.7750    7.8100    1.8010 hc        1 MOL      0.099642
      5 H2         -7.2890    8.5950    2.3110 hc        1 MOL      0.099642
      6 H3         -6.8190    7.0270    3.0130 hc        1 MOL      0.099642
      7 N1         -8.2280    5.7880    1.3810 n         1 MOL     -0.483929
      8 C3         -9.0180    4.9620    0.4680 c3        1 MOL      0.088247
      9 C4         -8.1140    4.1850   -0.4810 c         1 MOL      0.598690
     10 O2         -8.3760    4.2510   -1.7270 o         1 MOL     -0.561089
     11 C5         -9.8970    4.0420    1.3080 c3        1 MOL     -0.124100
     12 C6        -10.8500    3.2120    0.4760 c         1 MOL      0.650597
     13 O3        -12.0950    3.5570    0.5620 o         1 MOL     -0.710475
     14 O4        -10.3590    2.2450   -0.1800 o         1 MOL     -0.710475
     15 H4         -8.1180    5.5110    2.3470 hn        1 MOL      0.266908
     16 H5         -9.5900    5.6660   -0.1270 h1        1 MOL      0.069415
     17 H6        -10.4350    4.6720    2.0110 hc        1 MOL     -0.004754
     18 H7         -9.3160    3.3310    1.9110 hc        1 MOL     -0.004754
     19 N2         -6.9980    3.7180    0.0250 n         1 MOL     -0.580240
     20 C7         -5.8770    3.2160   -0.7450 c3        1 MOL      0.137729
     21 C8         -4.8670    2.4250    0.1970 c         1 MOL      0.580918
     22 O5         -4.5030    2.7860    1.2810 o         1 MOL     -0.540120
     23 C9         -5.0290    4.3660   -1.2810 c3        1 MOL     -0.157123
     24 H8         -6.9660    3.7560    1.0300 hn        1 MOL      0.281585
     25 H9         -6.2560    2.8200   -1.6810 h1        1 MOL      0.106397
     26 H10        -4.6170    4.9550   -0.4670 hc        1 MOL      0.053284
     27 H11        -4.1070    3.9700   -1.7070 hc        1 MOL      0.053284
     28 H12        -5.5270    5.0050   -2.0170 hc        1 MOL      0.053284
     29 N3         -4.2770    1.3240   -0.2810 n         1 MOL     -0.400811
     30 C10        -4.6830    0.4990   -1.4130 c3        1 MOL     -0.091516
     31 C11        -4.9760   -0.9830   -1.0190 c         1 MOL      0.537071
     32 O6         -4.5640   -1.5040   -0.0180 o         1 MOL     -0.532120
     33 C12        -3.7090    0.4730   -2.5320 c3        1 MOL     -0.104722
     34 C13        -2.4020   -0.0620   -2.0410 c         1 MOL      0.822103
     35 O7         -2.2460   -1.2490   -2.1960 o         1 MOL     -0.758912
     36 O8         -1.4920    0.6460   -1.6170 o         1 MOL     -0.758912
     37 H13        -3.6890    0.8180    0.3630 hn        1 MOL      0.284949
     38 H14        -5.6170    0.8450   -1.8750 h1        1 MOL      0.059323
     39 H15        -3.6250    1.5140   -2.8780 hc        1 MOL      0.010599
     40 H16        -4.0320   -0.1480   -3.3630 hc        1 MOL      0.010599
     41 N4         -5.8170   -1.6590   -1.8260 n         1 MOL     -0.415709
     42 C14        -6.4320   -2.9670   -1.5460 c3        1 MOL      0.074652
     43 C15        -6.3150   -4.0800   -2.5960 c         1 MOL      0.517191
     44 O9         -7.2470   -4.3350   -3.3300 o         1 MOL     -0.540777
     45 H17        -6.3290   -1.0600   -2.4600 hn        1 MOL      0.302450
     46 H18        -7.5090   -2.7740   -1.5020 h1        1 MOL      0.048984
     47 H19        -6.1120   -3.2950   -0.5520 h1        1 MOL      0.048984
     48 N5         -5.2100   -4.8370   -2.6240 n         1 MOL     -0.480819
     49 C16        -3.9760   -4.5580   -1.8110 c3        1 MOL      0.116027
     50 C17        -4.0070   -5.1300   -0.3810 c         1 MOL      0.508250
     51 O10        -4.4030   -6.2890   -0.2010 o         1 MOL     -0.552942
     52 C18        -2.7640   -5.0070   -2.6610 c3        1 MOL     -0.113587
     53 C19        -1.4430   -4.4840   -2.2350 c         1 MOL      0.517205
     54 N6         -0.3610   -4.8480   -2.9370 n         1 MOL     -0.751482
     55 O11        -1.3060   -3.7460   -1.2760 o         1 MOL     -0.289369
     56 H20        -5.0920   -5.6030   -3.2740 hn        1 MOL      0.299502
     57 H21        -3.8740   -3.4730   -1.7530 h1        1 MOL      0.000564
     58 H22        -2.8130   -4.7000   -3.7070 hc        1 MOL      0.050847
     59 H23        -2.8100   -6.0900   -2.6950 hc        1 MOL      0.050847
     60 H24        -0.4720   -5.4460   -3.7370 hn        1 MOL      0.350213
     61 H25         0.5360   -4.5990   -2.5540 hn        1 MOL      0.350213
     62 N7         -3.6100   -4.3070    0.6220 n         1 MOL     -0.228696
     63 C20        -3.5470   -4.6880    2.0680 c3        1 MOL     -0.369781
     64 C21        -2.2270   -5.1830    2.4570 c         1 MOL      0.543028
     65 O12        -2.0150   -5.7220    3.5070 o         1 MOL     -0.573940
     66 H26        -3.2660   -3.3970    0.3740 hn        1 MOL      0.271057
     67 H27        -4.2310   -5.5320    2.1390 h1        1 MOL      0.170759
     68 H28        -3.8320   -3.8910    2.7490 h1        1 MOL      0.170759
     69 N8         -1.1860   -4.8370    1.6740 n         1 MOL      0.016412
     70 C22         0.2190   -5.0630    2.0000 c3        1 MOL      0.066820
     71 C23         0.9660   -3.7280    2.1170 c         1 MOL      0.215420
     72 O13         0.4840   -2.6470    1.7740 o         1 MOL     -0.454328
     73 C24         0.8670   -6.0630    1.1240 c3        1 MOL      0.396525
     74 C25         0.3130   -7.4660    1.2380 c3        1 MOL     -0.346986
     75 O14         0.9650   -5.5500   -0.2090 oh        1 MOL     -0.572529
     76 H29        -1.3580   -4.4150    0.7720 hn        1 MOL     -0.114605
     77 H30         0.2410   -5.5310    2.9790 h1        1 MOL      0.015436
     78 H31         1.9110   -6.1120    1.4460 h1        1 MOL     -0.026153
     79 H32         1.5430   -4.7700   -0.2300 ho        1 MOL      0.253359
     80 H33         0.6150   -8.2070    0.5030 hc        1 MOL      0.080424
     81 H34         0.4180   -7.7930    2.2770 hc        1 MOL      0.080424
     82 H35        -0.7610   -7.3610    1.0900 hc        1 MOL      0.080424
     83 N9          2.0200   -3.7140    2.8680 n         1 MOL     -0.117232
     84 C26         3.0010   -2.6100    2.9480 c3        1 MOL      0.083238
     85 C27         4.2090   -2.9510    2.0140 c         1 MOL      0.265172
     86 O15         4.9270   -3.9090    2.2390 o         1 MOL     -0.529396
     87 C28         3.5620   -2.5770    4.4310 c3        1 MOL      0.192237
     88 C29         4.7510   -1.5800    4.6900 c3        1 MOL     -0.215963
     89 C30         2.3690   -2.1950    5.3620 c3        1 MOL     -0.404457
     90 C31         4.2570   -0.0880    4.6810 c3        1 MOL      0.095647
     91 H36         2.4050   -4.6090    3.1540 hn        1 MOL      0.181715
     92 H37         2.5070   -1.6700    2.6890 h1        1 MOL      0.002933
     93 H38         3.9210   -3.5820    4.6470 hc        1 MOL     -0.011469
     94 H39         5.5170   -1.5970    3.9130 hc        1 MOL      0.051001
     95 H40         5.0800   -1.7620    5.7070 hc        1 MOL      0.051001
     96 H41         1.6210   -1.5040    4.9770 hc        1 MOL      0.105006
     97 H42         1.7290   -3.0650    5.5310 hc        1 MOL      0.105006
     98 H43         2.7420   -1.9210    6.3440 hc        1 MOL      0.105006
     99 H44         4.9590    0.5180    5.2470 hc        1 MOL     -0.016326
    100 H45         4.3680    0.2690    3.6630 hc        1 MOL     -0.016326
    101 H46         3.2760   -0.0260    5.1340 hc        1 MOL     -0.016326
    102 N10         4.2840   -2.2360    0.9000 n         1 MOL     -0.097248
    103 C32         5.1560   -2.6890   -0.2420 c3        1 MOL      0.021211
    104 C33         5.8530   -1.5640   -1.0400 c         1 MOL      0.537915
    105 O16         6.1020   -1.7430   -2.2260 o         1 MOL     -0.513582
    106 C34         4.2940   -3.5800   -1.1440 c3        1 MOL     -0.009836
    107 C35         3.0130   -2.9340   -1.6890 c         1 MOL      0.632963
    108 O17         1.9360   -3.2180   -1.1200 o         1 MOL     -0.650383
    109 O18         3.0410   -2.1250   -2.6400 o         1 MOL     -0.650383
    110 H47         3.6490   -1.4540    0.8550 hn        1 MOL      0.158982
    111 H48         5.9900   -3.2830    0.1330 h1        1 MOL      0.050362
    112 H49         4.1470   -4.5510   -0.6760 hc        1 MOL      0.014258
    113 H50         4.8830   -3.8880   -1.9980 hc        1 MOL      0.014258
    114 N11         6.0330   -0.3900   -0.3940 n         1 MOL     -0.546960
    115 C36         6.4950    0.8290   -1.0900 c3        1 MOL      0.417986
    116 C37         6.0430    2.1720   -0.4850 c         1 MOL      0.224817
    117 O19         5.9730    2.2950    0.7220 o         1 MOL     -0.461450
    118 C38         8.0330    0.9050   -1.1750 c3        1 MOL     -0.359267
    119 C39         8.5990    1.9710   -2.0280 ca        1 MOL      0.115295
    120 C40         9.0140    3.1520   -1.4030 ca        1 MOL     -0.091545
    121 C41         8.9090    1.8020   -3.3850 ca        1 MOL     -0.091545
    122 C42         9.6930    4.1670   -2.0570 ca        1 MOL     -0.174165
    123 C43         9.7190    2.7210   -4.0610 ca        1 MOL     -0.174165
    124 C44         9.9960    3.9660   -3.4100 ca        1 MOL     -0.099695
    125 H51         5.7910   -0.2310    0.5810 hn        1 MOL      0.265685
    126 H52         6.0910    0.7350   -2.0970 h1        1 MOL      0.008510
    127 H53         8.3700   -0.0540   -1.5640 hc        1 MOL      0.108936
    128 H54         8.5040    1.0350   -0.1970 hc        1 MOL      0.108936
    129 H55         8.8790    3.2620   -0.3450 ha        1 MOL      0.107713
    130 H56         8.5790    0.8990   -3.8910 ha        1 MOL      0.107713
    131 H57         9.9110    4.9960   -1.4050 ha        1 MOL      0.129492
    132 H58         9.9750    2.6040   -5.1010 ha        1 MOL      0.129492
    133 H59        10.5240    4.7270   -3.9740 ha        1 MOL      0.099314
    134 N12         5.6580    3.2350   -1.2400 n         1 MOL     -0.106739
    135 C45         5.5060    4.6530   -0.9060 c3        1 MOL      0.022957
    136 C46         4.4110    4.9310    0.2300 c         1 MOL      0.371812
    137 O20         4.4470    5.9860    0.8320 o         1 MOL     -0.511826
    138 C47         5.2860    5.4490   -2.1610 c3        1 MOL     -0.054204
    139 C48         5.8550    4.5070   -3.1920 c3        1 MOL     -0.092710
    140 C49         5.4790    3.1580   -2.6710 c3        1 MOL     -0.064677
    141 H60         6.5220    4.8800   -0.5760 h1        1 MOL      0.062267
    142 H61         4.2080    5.5990   -2.2400 hc        1 MOL      0.055513
    143 H62         5.7320    6.4430   -2.0870 hc        1 MOL      0.055513
    144 H63         5.3750    4.5370   -4.1630 hc        1 MOL      0.043460
    145 H64         6.9280    4.5360   -3.3920 hc        1 MOL      0.043460
    146 H65         4.4700    2.9090   -3.0030 h1        1 MOL      0.074067
    147 H66         6.2600    2.5650   -3.1550 h1        1 MOL      0.074067
    148 N13         3.4590    4.0620    0.4300 n         1 MOL     -0.243576
    149 C50         2.5940    4.1880    1.6020 c3        1 MOL     -0.077888
    150 C51         3.2140    4.1230    2.9440 c         1 MOL      0.596739
    151 O21         2.5830    4.6040    3.8770 o         1 MOL     -0.549808
    152 C52         1.4690    3.1490    1.5200 c3        1 MOL     -0.169063
    153 C53         2.1410    1.7740    1.8050 c3        1 MOL     -0.016289
    154 C54         1.6220    0.6780    0.8290 c         1 MOL      0.612720
    155 O22         0.3560    0.5520    0.7490 o         1 MOL     -0.684043
    156 O23         2.3580   -0.0610    0.1160 o         1 MOL     -0.684043
    157 H67         3.3920    3.1880   -0.0740 hn        1 MOL      0.247604
    158 H68         2.0830    5.1510    1.6320 h1        1 MOL      0.110591
    159 H69         1.0330    3.1430    0.5270 hc        1 MOL      0.085648
    160 H70         0.6410    3.3420    2.2040 hc        1 MOL      0.085648
    161 H71         1.9960    1.5210    2.8560 hc        1 MOL      0.025791
    162 H72         3.2220    1.8760    1.6620 hc        1 MOL      0.025791
    163 N14         4.5020    3.6760    3.0770 n         1 MOL     -0.369064
    164 C55         5.2690    3.9310    4.3060 c3        1 MOL     -0.222803
    165 H73         6.0640    4.6470    4.0960 h1        1 MOL      0.097399
    166 H74         4.6080    4.3390    5.0700 h1        1 MOL      0.097399
    167 H75         5.7050    2.9980    4.6640 h1        1 MOL      0.097399
    168 H76         5.0120    3.1780    2.3650 hn        1 MOL      0.290607
    169 Ca1        -0.0090   -1.4210   -0.7460 Ca        1 MOL      1.703235
    170 O24         0.5990   -1.4490   -3.2930 oh        1 MOL     -0.930754
    171 H77         0.3690   -1.3800   -4.2250 ho        1 MOL      0.423337
    172 H78         1.5050   -1.7400   -3.2830 ho        1 MOL      0.423337
    173 O25        -2.2470   -1.3590    0.9820 oh        1 MOL     -0.930754
    174 H79        -2.1790   -0.6900    1.6590 ho        1 MOL      0.423337
    175 H80        -3.1900   -1.5140    0.8860 ho        1 MOL      0.423337
@<TRIPOS>BOND
     1    1    2 1   
     2    1    4 1   
     3    1    5 1   
     4    1    6 1   
     5    2    3 2   
     6    2    7 1   
     7    7    8 1   
     8    7   15 1   
     9    8    9 1   
    10    8   11 1   
    11    8   16 1   
    12    9   10 2   
    13    9   19 1   
    14   11   12 1   
    15   11   17 1   
    16   11   18 1   
    17   12   13 1   
    18   12   14 1   
    19   19   20 1   
    20   19   24 1   
    21   20   21 1   
    22   20   23 1   
    23   20   25 1   
    24   21   22 2   
    25   21   29 1   
    26   23   26 1   
    27   23   27 1   
    28   23   28 1   
    29   29   30 1   
    30   29   37 1   
    31   30   31 1   
    32   30   33 1   
    33   30   38 1   
    34   31   32 2   
    35   31   41 1   
    36   33   34 1   
    37   33   39 1   
    38   33   40 1   
    39   34   35 1   
    40   34   36 1   
    41   41   42 1   
    42   41   45 1   
    43   42   43 1   
    44   42   46 1   
    45   42   47 1   
    46   43   44 2   
    47   43   48 1   
    48   48   49 1   
    49   48   56 1   
    50   49   50 1   
    51   49   52 1   
    52   49   57 1   
    53   50   51 2   
    54   50   62 1   
    55   52   53 1   
    56   52   58 1   
    57   52   59 1   
    58   53   54 1   
    59   53   55 2   
    60   54   60 1   
    61   54   61 1   
    62   62   63 1   
    63   62   66 1   
    64   63   64 1   
    65   63   67 1   
    66   63   68 1   
    67   64   65 2   
    68   64   69 1   
    69   69   70 1   
    70   69   76 1   
    71   70   71 1   
    72   70   73 1   
    73   70   77 1   
    74   71   72 2   
    75   71   83 1   
    76   73   74 1   
    77   73   75 1   
    78   73   78 1   
    79   74   80 1   
    80   74   81 1   
    81   74   82 1   
    82   75   79 1   
    83   83   84 1   
    84   83   91 1   
    85   84   85 1   
    86   84   87 1   
    87   84   92 1   
    88   85   86 2   
    89   85  102 1   
    90   87   88 1   
    91   87   89 1   
    92   87   93 1   
    93   88   90 1   
    94   88   94 1   
    95   88   95 1   
    96   89   96 1   
    97   89   97 1   
    98   89   98 1   
    99   90   99 1   
   100   90  100 1   
   101   90  101 1   
   102  102  103 1   
   103  102  110 1   
   104  103  104 1   
   105  103  106 1   
   106  103  111 1   
   107  104  105 2   
   108  104  114 1   
   109  106  107 1   
   110  106  112 1   
   111  106  113 1   
   112  107  108 1   
   113  107  109 1   
   114  114  115 1   
   115  114  125 1   
   116  115  116 1   
   117  115  118 1   
   118  115  126 1   
   119  116  117 2   
   120  116  134 1   
   121  118  119 1   
   122  118  127 1   
   123  118  128 1   
   124  119  120 ar  
   125  119  121 ar  
   126  120  122 ar  
   127  120  129 1   
   128  121  123 ar  
   129  121  130 1   
   130  122  124 ar  
   131  122  131 1   
   132  123  124 ar  
   133  123  132 1   
   134  124  133 1   
   135  134  135 1   
   136  134  140 1   
   137  135  136 1   
   138  135  138 1   
   139  135  141 1   
   140  136  137 2   
   141  136  148 1   
   142  138  139 1   
   143  138  142 1   
   144  138  143 1   
   145  139  140 1   
   146  139  144 1   
   147  139  145 1   
   148  140  146 1   
   149  140  147 1   
   150  148  149 1   
   151  148  157 1   
   152  149  150 1   
   153  149  152 1   
   154  149  158 1   
   155  150  151 2   
   156  150  163 1   
   157  152  153 1   
   158  152  159 1   
   159  152  160 1   
   160  153  154 1   
   161  153  161 1   
   162  153  162 1   
   163  154  155 1   
   164  154  156 1   
   165  163  164 1   
   166  163  168 1   
   167  164  165 1   
   168  164  166 1   
   169  164  167 1   
   170  170  171 1   
   171  170  172 1   
   172  173  174 1   
   173  173  175 1   
@<TRIPOS>SUBSTRUCTURE
     1 MOL         1 TEMP              0 ****  ****    0 ROOT
