@<TRIPOS>MOLECULE
MOL
  192   187     1     0     0
SMALL
resp


@<TRIPOS>ATOM
      1 C1          6.2790   -5.5850   -2.0310 c3        1 MOL     -0.356314
      2 C2          5.6550   -4.3690   -1.4050 c         1 MOL      0.752973
      3 O1          4.9920   -4.4250   -0.3360 o         1 MOL     -0.597226
      4 H1          6.7060   -6.2150   -1.2500 hc        1 MOL      0.095737
      5 H2          5.5170   -6.1460   -2.5740 hc        1 MOL      0.095737
      6 H3          7.0650   -5.2780   -2.7200 hc        1 MOL      0.095737
      7 N1          5.7950   -3.1770   -2.0790 n         1 MOL     -0.675186
      8 C3          5.4030   -1.8960   -1.5690 c3        1 MOL      0.139663
      9 C4          3.8870   -1.5730   -1.4580 c         1 MOL      0.055097
     10 O2          3.4720   -0.5490   -0.8700 o         1 MOL     -0.187994
     11 C5          6.1760   -0.7630   -2.2390 c3        1 MOL     -0.298715
     12 C6          6.3290   -0.9800   -3.7990 c         1 MOL      0.674342
     13 O3          5.7310   -0.1450   -4.4930 o         1 MOL     -0.679488
     14 O4          6.8430   -2.0270   -4.2950 o         1 MOL     -0.679488
     15 H4          6.4070   -3.1820   -2.8860 hn        1 MOL      0.372978
     16 H5          5.8090   -1.8740   -0.5550 h1        1 MOL      0.172947
     17 H6          7.1210   -0.8540   -1.7150 hc        1 MOL      0.088632
     18 H7          5.7270    0.2090   -2.0110 hc        1 MOL      0.088632
     19 N2          2.9730   -2.4100   -1.9320 n         1 MOL     -0.004705
     20 C7          1.4230   -2.2940   -1.9330 c3        1 MOL      0.026451
     21 C8          0.7400   -3.2830   -0.9420 c         1 MOL      0.490840
     22 O5          1.0790   -4.4410   -0.8930 o         1 MOL     -0.517157
     23 C9          0.8830   -2.6330   -3.3150 c3        1 MOL      0.033102
     24 C10         1.1280   -1.5520   -4.3710 c3        1 MOL     -0.271936
     25 C11         2.5900   -1.3790   -4.8020 c3        1 MOL      0.180563
     26 C12         2.5640   -0.3140   -5.9490 c3        1 MOL     -0.091479
     27 N3          3.9760   -0.1500   -6.5320 n4        1 MOL     -0.146465
     28 H8          3.3470   -3.3200   -2.1750 hn        1 MOL      0.163928
     29 H9          1.1980   -1.2780   -1.6190 h1        1 MOL     -0.074605
     30 H10        -0.1870   -2.7860   -3.2140 hc        1 MOL      0.044454
     31 H11         1.1810   -3.6190   -3.6620 hc        1 MOL      0.044454
     32 H12         0.7130   -0.6390   -3.9550 hc        1 MOL      0.073261
     33 H13         0.5120   -1.7740   -5.2470 hc        1 MOL      0.073261
     34 H14         3.0120   -2.3590   -5.0120 hc        1 MOL      0.005212
     35 H15         3.1970   -1.0570   -3.9540 hc        1 MOL      0.005212
     36 H16         2.2170    0.5470   -5.3750 hx        1 MOL      0.080028
     37 H17         1.9750   -0.7010   -6.7730 hx        1 MOL      0.080028
     38 H18         4.0740    0.5770   -7.2220 hn        1 MOL      0.250179
     39 H19         4.6370    0.0850   -5.8020 hn        1 MOL      0.250179
     40 H20         4.3160   -1.0350   -6.8860 hn        1 MOL      0.250179
     41 N4         -0.2810   -2.9440   -0.1510 n         1 MOL     -0.394583
     42 C13        -0.9200   -1.6320    0.0170 c3        1 MOL      0.091392
     43 C14        -1.4060   -1.0280   -1.3340 c         1 MOL      0.017690
     44 O6         -0.7850   -0.0410   -1.6890 o         1 MOL     -0.372243
     45 C15        -0.0010   -0.7360    0.9240 c3        1 MOL      0.923840
     46 C16         0.1050   -1.1750    2.4260 c         1 MOL      0.029681
     47 O7         -0.2150   -2.3130    2.6890 o         1 MOL     -0.638184
     48 O8          0.6590   -0.4660    3.2980 o         1 MOL     -0.638184
     49 H21        -0.6630   -3.7030    0.3930 hn        1 MOL      0.285138
     50 H22        -1.7880   -1.7370    0.6580 h1        1 MOL     -0.021094
     51 H23        -0.2910    0.3100    1.0180 hc        1 MOL     -0.138312
     52 H24         1.0300   -0.7730    0.5680 hc        1 MOL     -0.138312
     53 N5         -2.3560   -1.5670   -2.0460 n         1 MOL     -0.155915
     54 C17        -3.2850   -2.5810   -1.4830 c3        1 MOL     -0.022654
     55 C18        -3.6420   -3.6850   -2.3930 c         1 MOL      0.588707
     56 O9         -2.9820   -3.8390   -3.4000 o         1 MOL     -0.576193
     57 H25        -2.4900   -1.2610   -2.9900 hn        1 MOL      0.300346
     58 H26        -4.1960   -2.0770   -1.1720 h1        1 MOL      0.032562
     59 H27        -3.0110   -3.1070   -0.5740 h1        1 MOL      0.032562
     60 N6         -4.6730   -4.4320   -2.0890 n         1 MOL     -0.530258
     61 C19        -5.4340   -4.5290   -0.8120 c3        1 MOL      0.177031
     62 C20        -6.5630   -3.5030   -0.5740 c         1 MOL      0.607554
     63 O10        -7.0700   -2.9630   -1.5720 o         1 MOL     -0.476397
     64 C21        -5.8940   -6.0040   -0.5510 c3        1 MOL     -0.232402
     65 C22        -6.4680   -6.8010   -1.7310 c         1 MOL      0.685019
     66 O11        -6.8690   -8.0130   -1.4780 o         1 MOL     -0.657068
     67 O12        -6.6410   -6.2980   -2.8430 o         1 MOL     -0.657068
     68 H28        -5.0010   -5.0630   -2.8100 hn        1 MOL      0.338841
     69 H29        -4.6750   -4.3620   -0.0460 h1        1 MOL     -0.029219
     70 H30        -6.5210   -5.9360    0.3330 hc        1 MOL      0.035276
     71 H31        -5.1120   -6.6180   -0.1010 hc        1 MOL      0.035276
     72 N7         -6.8180   -3.0800    0.6740 n         1 MOL     -0.443134
     73 C23        -7.9590   -2.2490    1.0010 c3        1 MOL     -0.305907
     74 C24        -7.6940   -0.7280    1.0320 c         1 MOL      0.573275
     75 O13        -8.5550    0.0270    0.6170 o         1 MOL     -0.496148
     76 H32        -6.4020   -3.4650    1.5090 hn        1 MOL      0.277927
     77 H33        -8.1820   -2.6000    2.0100 h1        1 MOL      0.162091
     78 H34        -8.7510   -2.5150    0.3120 h1        1 MOL      0.162091
     79 N8         -6.4300   -0.3490    1.4800 n         1 MOL     -0.526765
     80 C25        -5.8820    1.0590    1.5610 c3        1 MOL      0.048875
     81 C26        -5.6340    1.6820    0.1950 c         1 MOL      0.644902
     82 O14        -5.5750    1.0590   -0.8580 o         1 MOL     -0.427280
     83 C27        -4.4910    1.0220    2.2760 c3        1 MOL      0.082698
     84 C28        -3.3790    0.2370    1.4950 c3        1 MOL     -0.173486
     85 O15        -4.7120    0.3470    3.4740 oh        1 MOL     -0.591109
     86 H35        -5.9030   -1.0610    1.9760 hn        1 MOL      0.314547
     87 H36        -6.5710    1.6810    2.1250 h1        1 MOL      0.066949
     88 H37        -4.0630    2.0100    2.4400 h1        1 MOL      0.045498
     89 H38        -5.2650    0.9190    4.0050 ho        1 MOL      0.385108
     90 H39        -3.0350    0.6530    0.5510 hc        1 MOL      0.087855
     91 H40        -2.5140    0.3990    2.1270 hc        1 MOL      0.087855
     92 H41        -3.7250   -0.7760    1.2820 hc        1 MOL      0.087855
     93 N9         -5.5980    3.0580    0.2100 n         1 MOL     -0.668755
     94 C29        -5.4580    3.8920   -0.9150 c3        1 MOL     -0.047520
     95 C30        -3.9940    4.2020   -1.1980 c         1 MOL      0.570565
     96 O16        -3.5260    4.2590   -2.3230 o         1 MOL     -0.533874
     97 C31        -6.4240    5.1140   -1.0550 c3        1 MOL      0.229907
     98 C32        -7.8490    4.5700   -1.0440 c3        1 MOL     -0.025331
     99 C33        -6.0640    6.0490   -2.2060 c3        1 MOL     -0.575582
    100 C34        -8.9560    5.6130   -1.0150 c3        1 MOL     -0.251928
    101 H42        -5.8020    3.4450    1.1210 hn        1 MOL      0.302140
    102 H43        -5.7870    3.2990   -1.7700 h1        1 MOL      0.091752
    103 H44        -6.4260    5.7220   -0.1480 hc        1 MOL     -0.025597
    104 H45        -7.8530    4.0420   -0.0990 hc        1 MOL      0.062533
    105 H46        -8.0100    3.8740   -1.8600 hc        1 MOL      0.062533
    106 H47        -5.9660    5.4230   -3.0970 hc        1 MOL      0.158602
    107 H48        -6.8710    6.7560   -2.3560 hc        1 MOL      0.158602
    108 H49        -5.1610    6.5730   -1.9050 hc        1 MOL      0.158602
    109 H50        -9.1530    6.1920   -1.9250 hc        1 MOL      0.065232
    110 H51        -9.9040    5.0970   -0.8680 hc        1 MOL      0.065232
    111 H52        -8.9070    6.3030   -0.1660 hc        1 MOL      0.065232
    112 N10        -3.2510    4.3650   -0.0800 n         1 MOL     -0.366728
    113 C35        -1.9500    5.0610   -0.1580 c3        1 MOL     -0.040167
    114 C36        -0.8690    3.9840    0.1790 c         1 MOL      0.502883
    115 O17        -0.9100    3.4350    1.2500 o         1 MOL     -0.524078
    116 C37        -1.9430    6.2170    0.9050 c3        1 MOL      0.408784
    117 C38        -2.8100    7.4280    0.4950 c3        1 MOL     -0.177130
    118 O18        -0.6410    6.8430    1.1610 oh        1 MOL     -0.632741
    119 H53        -3.5560    4.0680    0.8370 hn        1 MOL      0.230541
    120 H54        -1.8030    5.5360   -1.1300 h1        1 MOL      0.110518
    121 H55        -2.4060    5.7830    1.7810 h1        1 MOL     -0.038772
    122 H56        -0.5170    6.8260    2.1040 ho        1 MOL      0.389813
    123 H57        -2.6180    7.7050   -0.5440 hc        1 MOL      0.034310
    124 H58        -3.8420    7.1300    0.6860 hc        1 MOL      0.034310
    125 H59        -2.5640    8.2550    1.1550 hc        1 MOL      0.034310
    126 N11         0.0190    3.7100   -0.7360 n         1 MOL     -0.489206
    127 C39         1.0800    2.6920   -0.7110 c3        1 MOL      0.135634
    128 C40         2.3590    3.1900    0.0160 c         1 MOL      0.612525
    129 O19         2.3560    4.3070    0.4860 o         1 MOL     -0.604642
    130 C41         1.5010    2.2810   -2.1580 c3        1 MOL      0.677798
    131 C42         2.5800    3.1470   -2.8360 c3        1 MOL     -0.455939
    132 O20         0.4130    2.0700   -2.9830 oh        1 MOL     -0.681001
    133 H60         0.1510    4.3990   -1.4700 hn        1 MOL      0.261758
    134 H61         0.7720    1.7780   -0.2030 h1        1 MOL     -0.058073
    135 H62         2.0440    1.3310   -2.0870 h1        1 MOL     -0.062345
    136 H63         0.0010    1.2510   -2.7070 ho        1 MOL      0.351067
    137 H64         3.6220    2.9140   -2.6230 hc        1 MOL      0.081743
    138 H65         2.4420    2.7420   -3.8480 hc        1 MOL      0.081743
    139 H66         2.3450    4.2050   -2.7610 hc        1 MOL      0.081743
    140 N12         3.4340    2.4020    0.0580 n         1 MOL     -0.264850
    141 C43         4.7020    2.7780    0.7050 c3        1 MOL     -0.013347
    142 C44         5.1030    1.7340    1.7990 c         1 MOL      0.649562
    143 O21         5.6470    2.0660    2.8380 o         1 MOL     -0.635047
    144 C45         5.7930    2.7010   -0.3590 c3        1 MOL     -0.284088
    145 C46         6.9160    3.6760   -0.2980 c3        1 MOL      0.123714
    146 C47         6.6840    5.0730   -0.8020 c3        1 MOL     -0.202797
    147 C48         5.3290    5.8140   -0.3880 c3        1 MOL      0.280350
    148 N13         5.0890    7.0560   -1.1480 n4        1 MOL     -0.487485
    149 H67         3.3430    1.4420   -0.2560 hn        1 MOL     -0.016353
    150 H68         4.5500    3.7120    1.2480 h1        1 MOL      0.088893
    151 H69         5.3700    2.7920   -1.3580 hc        1 MOL      0.097559
    152 H70         6.2890    1.7270   -0.3140 hc        1 MOL      0.097559
    153 H71         7.7610    3.2530   -0.8500 hc        1 MOL      0.032590
    154 H72         7.3010    3.7830    0.7140 hc        1 MOL      0.032590
    155 H73         6.6020    5.1270   -1.8860 hc        1 MOL      0.045352
    156 H74         7.4680    5.6900   -0.3550 hc        1 MOL      0.045352
    157 H75         5.4210    6.0200    0.6840 hx        1 MOL      0.029146
    158 H76         4.5110    5.0930   -0.3880 hx        1 MOL      0.029146
    159 H77         5.8660    7.6440   -1.4170 hn        1 MOL      0.326926
    160 H78         4.5960    6.8280   -2.0010 hn        1 MOL      0.326926
    161 H79         4.4910    7.6400   -0.5780 hn        1 MOL      0.326926
    162 N14         4.8300    0.4780    1.5800 n         1 MOL     -0.336351
    163 C49         5.0380   -0.5830    2.5380 c3        1 MOL     -0.398852
    164 C50         6.4270   -1.0990    2.4570 c         1 MOL      0.515052
    165 O22         6.8500   -1.8330    1.5330 o         1 MOL     -0.527352
    166 C51         3.9480   -1.6960    2.2510 c3        1 MOL      0.432051
    167 C52         3.7890   -2.8280    3.3120 c3        1 MOL     -0.068899
    168 C53         3.6840   -2.3300    4.7730 c         1 MOL      0.388013
    169 O23         2.5890   -1.8300    5.2320 o         1 MOL     -0.643267
    170 O24         4.6940   -2.4940    5.5450 o         1 MOL     -0.643267
    171 H80         4.2310    0.2500    0.7960 hn        1 MOL      0.187286
    172 H81         4.9300   -0.2050    3.5550 h1        1 MOL      0.271347
    173 H82         3.9690   -2.1110    1.2430 hc        1 MOL     -0.082467
    174 H83         2.9870   -1.1780    2.2610 hc        1 MOL     -0.082467
    175 H84         4.6930   -3.4430    3.2750 hc        1 MOL      0.034568
    176 H85         2.9880   -3.5000    3.0150 hc        1 MOL      0.034568
    177 N15         7.2780   -0.8180    3.4330 n         1 MOL     -0.192511
    178 C54         8.6560   -1.1650    3.3830 c3        1 MOL     -0.238904
    179 H86         8.8550   -1.9620    4.0980 h1        1 MOL      0.099198
    180 H87         8.9090   -1.5060    2.3780 h1        1 MOL      0.099198
    181 H88         9.2600   -0.2930    3.6330 h1        1 MOL      0.099198
    182 H89         6.8530   -0.4860    4.2850 hn        1 MOL      0.263504
    183 Ca1         0.0090   -1.9350    5.3180 Ca        1 MOL      1.710582
    184 O25        -2.2200   -3.6350    5.3470 oh        1 MOL     -0.841948
    185 H90        -3.1460   -3.3910    5.3480 ho        1 MOL      0.424403
    186 H91        -2.1420   -4.2560    4.6170 ho        1 MOL      0.424403
    187 O26         0.0980    0.5920    6.4640 oh        1 MOL     -0.841948
    188 H92         0.6060    1.3900    6.6550 ho        1 MOL      0.424403
    189 H93        -0.6900    0.6890    6.9900 ho        1 MOL      0.424403
    190 O27        -2.3230   -0.5660    4.8230 oh        1 MOL     -0.841948
    191 H94        -2.2780    0.3870    4.8560 ho        1 MOL      0.424403
    192 H95        -3.2210   -0.7580    4.5510 ho        1 MOL      0.424403
@<TRIPOS>BOND
     1    1    2 1   
     2    1    4 1   
     3    1    5 1   
     4    1    6 1   
     5    2    3 2   
     6    2    7 1   
     7    7    8 1   
     8    7   15 1   
     9    8    9 1   
    10    8   11 1   
    11    8   16 1   
    12    9   10 2   
    13    9   19 1   
    14   11   12 1   
    15   11   17 1   
    16   11   18 1   
    17   12   13 1   
    18   12   14 1   
    19   19   20 1   
    20   19   28 1   
    21   20   21 1   
    22   20   23 1   
    23   20   29 1   
    24   21   22 2   
    25   21   41 1   
    26   23   24 1   
    27   23   30 1   
    28   23   31 1   
    29   24   25 1   
    30   24   32 1   
    31   24   33 1   
    32   25   26 1   
    33   25   34 1   
    34   25   35 1   
    35   26   27 1   
    36   26   36 1   
    37   26   37 1   
    38   27   38 1   
    39   27   39 1   
    40   27   40 1   
    41   41   42 1   
    42   41   49 1   
    43   42   43 1   
    44   42   45 1   
    45   42   50 1   
    46   43   44 2   
    47   43   53 1   
    48   45   46 1   
    49   45   51 1   
    50   45   52 1   
    51   46   47 1   
    52   46   48 1   
    53   53   54 1   
    54   53   57 1   
    55   54   55 1   
    56   54   58 1   
    57   54   59 1   
    58   55   56 2   
    59   55   60 1   
    60   60   61 1   
    61   60   68 1   
    62   61   62 1   
    63   61   64 1   
    64   61   69 1   
    65   62   63 2   
    66   62   72 1   
    67   64   65 1   
    68   64   70 1   
    69   64   71 1   
    70   65   66 1   
    71   65   67 1   
    72   72   73 1   
    73   72   76 1   
    74   73   74 1   
    75   73   77 1   
    76   73   78 1   
    77   74   75 2   
    78   74   79 1   
    79   79   80 1   
    80   79   86 1   
    81   80   81 1   
    82   80   83 1   
    83   80   87 1   
    84   81   82 2   
    85   81   93 1   
    86   83   84 1   
    87   83   85 1   
    88   83   88 1   
    89   84   90 1   
    90   84   91 1   
    91   84   92 1   
    92   85   89 1   
    93   93   94 1   
    94   93  101 1   
    95   94   95 1   
    96   94   97 1   
    97   94  102 1   
    98   95   96 2   
    99   95  112 1   
   100   97   98 1   
   101   97   99 1   
   102   97  103 1   
   103   98  100 1   
   104   98  104 1   
   105   98  105 1   
   106   99  106 1   
   107   99  107 1   
   108   99  108 1   
   109  100  109 1   
   110  100  110 1   
   111  100  111 1   
   112  112  113 1   
   113  112  119 1   
   114  113  114 1   
   115  113  116 1   
   116  113  120 1   
   117  114  115 2   
   118  114  126 1   
   119  116  117 1   
   120  116  118 1   
   121  116  121 1   
   122  117  123 1   
   123  117  124 1   
   124  117  125 1   
   125  118  122 1   
   126  126  127 1   
   127  126  133 1   
   128  127  128 1   
   129  127  130 1   
   130  127  134 1   
   131  128  129 2   
   132  128  140 1   
   133  130  131 1   
   134  130  132 1   
   135  130  135 1   
   136  131  137 1   
   137  131  138 1   
   138  131  139 1   
   139  132  136 1   
   140  140  141 1   
   141  140  149 1   
   142  141  142 1   
   143  141  144 1   
   144  141  150 1   
   145  142  143 2   
   146  142  162 1   
   147  144  145 1   
   148  144  151 1   
   149  144  152 1   
   150  145  146 1   
   151  145  153 1   
   152  145  154 1   
   153  146  147 1   
   154  146  155 1   
   155  146  156 1   
   156  147  148 1   
   157  147  157 1   
   158  147  158 1   
   159  148  159 1   
   160  148  160 1   
   161  148  161 1   
   162  162  163 1   
   163  162  171 1   
   164  163  164 1   
   165  163  166 1   
   166  163  172 1   
   167  164  165 2   
   168  164  177 1   
   169  166  167 1   
   170  166  173 1   
   171  166  174 1   
   172  167  168 1   
   173  167  175 1   
   174  167  176 1   
   175  168  169 1   
   176  168  170 1   
   177  177  178 1   
   178  177  182 1   
   179  178  179 1   
   180  178  180 1   
   181  178  181 1   
   182  184  185 1   
   183  184  186 1   
   184  187  188 1   
   185  187  189 1   
   186  190  191 1   
   187  190  192 1   
@<TRIPOS>SUBSTRUCTURE
     1 MOL         1 TEMP              0 ****  ****    0 ROOT
