@<TRIPOS>MOLECULE
MOL
  192   187     1     0     0
SMALL
resp


@<TRIPOS>ATOM
      1 C1          7.0220   -5.3660    1.2520 c3        1 MOL     -0.455957
      2 C2          6.0770   -4.1260    1.0670 c         1 MOL      0.797977
      3 O1          5.3190   -3.6730    1.9620 o         1 MOL     -0.693558
      4 H1          7.5620   -5.2720    2.1950 hc        1 MOL      0.113166
      5 H2          6.4260   -6.2780    1.2630 hc        1 MOL      0.113166
      6 H3          7.7350   -5.4070    0.4280 hc        1 MOL      0.113166
      7 N1          6.1290   -3.5010   -0.1240 n         1 MOL     -0.500925
      8 C3          5.2540   -2.4020   -0.5620 c3        1 MOL      0.254697
      9 C4          3.8470   -2.7830   -1.1010 c         1 MOL      0.299909
     10 O2          3.1300   -1.9270   -1.6020 o         1 MOL     -0.519085
     11 C5          5.9890   -1.5100   -1.5980 c3        1 MOL     -0.309403
     12 C6          6.6760   -2.2080   -2.6700 c         1 MOL      0.768881
     13 O3          7.5960   -2.9780   -2.3690 o         1 MOL     -0.726046
     14 O4          6.2780   -2.1580   -3.8890 o         1 MOL     -0.726046
     15 H4          6.7740   -3.8790   -0.8020 hn        1 MOL      0.278026
     16 H5          5.1120   -1.7170    0.2750 h1        1 MOL      0.081834
     17 H6          6.7330   -0.9470   -1.0370 hc        1 MOL      0.044626
     18 H7          5.3550   -0.7970   -2.1330 hc        1 MOL      0.044626
     19 N2          3.4700   -4.0780   -0.9390 n         1 MOL     -0.272507
     20 C7          2.1870   -4.6660   -1.2580 c3        1 MOL      0.685655
     21 C8          1.5340   -5.4050   -0.0640 c         1 MOL      0.115738
     22 O5          2.2750   -6.0760    0.7010 o         1 MOL     -0.503460
     23 C9          2.4030   -5.7050   -2.4160 c3        1 MOL     -0.281758
     24 C10         3.0880   -5.2550   -3.7450 c3        1 MOL      0.005883
     25 C11         2.6490   -6.1760   -4.9430 c3        1 MOL     -0.028808
     26 C12         1.1800   -5.8120   -5.3010 c3        1 MOL      0.068169
     27 N3          0.7640   -6.5920   -6.5060 n4        1 MOL     -0.536248
     28 H8          4.1290   -4.7300   -0.5170 hn        1 MOL      0.152630
     29 H9          1.5070   -3.8920   -1.6220 h1        1 MOL     -0.039956
     30 H10         1.3780   -5.9930   -2.6420 hc        1 MOL      0.058548
     31 H11         3.0180   -6.5300   -2.0600 hc        1 MOL      0.058548
     32 H12         4.1490   -5.2780   -3.5210 hc        1 MOL      0.031998
     33 H13         2.6590   -4.2900   -4.0130 hc        1 MOL      0.031998
     34 H14         2.7240   -7.2620   -4.8180 hc        1 MOL      0.026948
     35 H15         3.3090   -5.9120   -5.7630 hc        1 MOL      0.026948
     36 H16         0.9700   -4.7660   -5.5380 hx        1 MOL      0.122043
     37 H17         0.6550   -6.2160   -4.4320 hx        1 MOL      0.122043
     38 H18         1.0190   -7.5630   -6.4770 hn        1 MOL      0.362860
     39 H19        -0.2420   -6.6610   -6.5230 hn        1 MOL      0.362860
     40 H20         1.0780   -6.1380   -7.3520 hn        1 MOL      0.362860
     41 N4          0.2390   -5.2930    0.2480 n         1 MOL     -0.119107
     42 C13        -0.8350   -4.3360   -0.1020 c3        1 MOL     -0.743574
     43 C14        -1.2710   -4.3600   -1.6120 c         1 MOL      1.039699
     44 O6         -0.6770   -4.8870   -2.5240 o         1 MOL     -0.748815
     45 C15        -0.4820   -2.9990    0.4940 c3        1 MOL     -0.014925
     46 C16        -0.2640   -2.8380    2.0580 c         1 MOL      0.860634
     47 O7         -0.6530   -3.7480    2.8500 o         1 MOL     -0.790894
     48 O8          0.2700   -1.8110    2.4760 o         1 MOL     -0.790894
     49 H21         0.0460   -5.7760    1.1160 hn        1 MOL      0.284819
     50 H22        -1.7270   -4.7510    0.3750 h1        1 MOL      0.227698
     51 H23        -1.2700   -2.2800    0.2890 hc        1 MOL      0.066498
     52 H24         0.3770   -2.6070   -0.0490 hc        1 MOL      0.066498
     53 N5         -2.3960   -3.7460   -1.9810 n         1 MOL     -0.653371
     54 C17        -3.5510   -3.4940   -1.1200 c3        1 MOL      0.043747
     55 C18        -4.7640   -2.9110   -1.9240 c         1 MOL      0.718406
     56 O9         -4.4890   -2.6860   -3.0810 o         1 MOL     -0.595193
     57 H25        -2.6470   -3.7760   -2.9530 hn        1 MOL      0.324262
     58 H26        -3.3010   -2.7930   -0.3290 h1        1 MOL      0.065370
     59 H27        -3.8910   -4.5060   -0.8900 h1        1 MOL      0.065370
     60 N6         -5.9440   -2.5740   -1.3750 n         1 MOL     -0.594625
     61 C19        -6.2420   -2.7330    0.0680 c3        1 MOL     -0.032404
     62 C20        -7.5050   -1.8770    0.4130 c         1 MOL      0.566152
     63 O10        -8.3610   -1.6370   -0.4500 o         1 MOL     -0.470550
     64 C21        -6.4920   -4.1910    0.4770 c3        1 MOL      0.040384
     65 C22        -7.2790   -5.1970   -0.4090 c         1 MOL      0.675815
     66 O11        -7.6620   -4.7750   -1.5000 o         1 MOL     -0.681791
     67 O12        -7.4770   -6.3020    0.0230 o         1 MOL     -0.681791
     68 H28        -6.5870   -2.0610   -1.9480 hn        1 MOL      0.351784
     69 H29        -5.3830   -2.3810    0.6450 h1        1 MOL      0.026455
     70 H30        -6.9550   -4.1750    1.4680 hc        1 MOL     -0.056488
     71 H31        -5.5060   -4.5720    0.7590 hc        1 MOL     -0.056488
     72 N7         -7.6930   -1.3770    1.6840 n         1 MOL     -0.346091
     73 C23        -8.6270   -0.3530    2.0960 c3        1 MOL     -0.323403
     74 C24        -8.1430    1.1090    1.7920 c         1 MOL      0.603952
     75 O13        -8.9970    1.9980    1.7400 o         1 MOL     -0.546376
     76 H32        -6.9230   -1.6500    2.2850 hn        1 MOL      0.245765
     77 H33        -8.8050   -0.5010    3.1540 h1        1 MOL      0.167289
     78 H34        -9.5240   -0.4880    1.4810 h1        1 MOL      0.167289
     79 N8         -6.8390    1.3200    1.7610 n         1 MOL     -0.374743
     80 C25        -6.2810    2.6690    1.4380 c3        1 MOL      0.029224
     81 C26        -5.2190    2.5050    0.3930 c         1 MOL      0.410980
     82 O14        -4.0770    2.0410    0.7050 o         1 MOL     -0.474218
     83 C27        -5.6360    3.1830    2.7190 c3        1 MOL      0.199219
     84 C28        -6.5310    3.4370    3.8740 c3        1 MOL     -0.495127
     85 O15        -5.1050    4.4000    2.3280 oh        1 MOL     -0.598937
     86 H35        -6.1690    0.5890    1.5780 hn        1 MOL      0.205771
     87 H36        -7.1210    3.2890    1.1470 h1        1 MOL      0.099372
     88 H37        -4.8420    2.5250    3.0430 h1        1 MOL      0.058921
     89 H38        -4.8390    4.9130    3.0890 ho        1 MOL      0.417479
     90 H39        -6.9430    2.4990    4.2240 hc        1 MOL      0.139354
     91 H40        -6.0390    4.0560    4.6290 hc        1 MOL      0.139354
     92 H41        -7.3650    4.0480    3.5230 hc        1 MOL      0.139354
     93 N9         -5.5450    3.0140   -0.8080 n         1 MOL     -0.360240
     94 C29        -4.7300    2.8230   -2.0590 c3        1 MOL      0.100077
     95 C30        -3.5380    3.7500   -2.1460 c         1 MOL      0.479548
     96 O16        -2.8630    3.6820   -3.2090 o         1 MOL     -0.544373
     97 C31        -5.5770    2.5970   -3.2930 c3        1 MOL      0.139161
     98 C32        -6.3580    3.8390   -3.8870 c3        1 MOL     -0.286112
     99 C33        -6.5610    1.4180   -3.0180 c3        1 MOL     -0.153333
    100 C34        -7.3990    4.4620   -2.8830 c3        1 MOL     -0.080188
    101 H42        -6.5140    3.3020   -0.8350 hn        1 MOL      0.243942
    102 H43        -4.2330    1.8650   -1.8670 h1        1 MOL      0.078096
    103 H44        -4.8220    2.2840   -4.0160 hc        1 MOL      0.005129
    104 H45        -6.9660    3.6070   -4.7690 hc        1 MOL      0.100218
    105 H46        -5.5940    4.5520   -4.1800 hc        1 MOL      0.100218
    106 H47        -6.1220    0.5180   -2.5890 hc        1 MOL      0.045071
    107 H48        -7.2840    1.6960   -2.2460 hc        1 MOL      0.045071
    108 H49        -7.0400    1.1780   -3.9650 hc        1 MOL      0.045071
    109 H50        -6.8410    4.9820   -2.1010 hc        1 MOL      0.032687
    110 H51        -8.1310    5.1280   -3.3370 hc        1 MOL      0.032687
    111 H52        -8.0390    3.7150   -2.4200 hc        1 MOL      0.032687
    112 N10        -3.2800    4.6660   -1.2160 n         1 MOL     -0.254974
    113 C35        -2.0480    5.4830   -1.2340 c3        1 MOL     -0.286893
    114 C36        -0.7840    4.5890   -1.3190 c         1 MOL      0.686029
    115 O17        -0.7600    3.4860   -0.8270 o         1 MOL     -0.504941
    116 C37        -1.9830    6.3910    0.0220 c3        1 MOL      0.325621
    117 C38        -1.8610    5.6010    1.3060 c3        1 MOL     -0.074304
    118 O18        -3.0620    7.2340    0.1290 oh        1 MOL     -0.601715
    119 H53        -3.9770    4.8490   -0.5160 hn        1 MOL      0.256394
    120 H54        -1.9730    6.0520   -2.1550 h1        1 MOL      0.114433
    121 H55        -1.0870    7.0170   -0.0250 h1        1 MOL     -0.007795
    122 H56        -3.1490    7.7640   -0.6770 ho        1 MOL      0.391736
    123 H57        -0.8230    5.3560    1.5250 hc        1 MOL      0.034584
    124 H58        -2.1220    6.1780    2.1940 hc        1 MOL      0.034584
    125 H59        -2.5820    4.7870    1.2300 hc        1 MOL      0.034584
    126 N11         0.3650    5.0880   -1.8740 n         1 MOL     -0.673371
    127 C39         1.6880    4.4120   -1.8470 c3        1 MOL      0.040979
    128 C40         2.6930    5.2350   -1.0920 c         1 MOL      0.648074
    129 O19         2.7930    6.4700   -1.1210 o         1 MOL     -0.576971
    130 C41         2.3100    4.0680   -3.2070 c3        1 MOL      0.266251
    131 C42         1.3450    3.1100   -3.7780 c3        1 MOL     -0.313481
    132 O20         3.5500    3.3500   -3.1230 oh        1 MOL     -0.616550
    133 H60         0.2700    5.9580   -2.3800 hn        1 MOL      0.320175
    134 H61         1.6560    3.4500   -1.3280 h1        1 MOL      0.106394
    135 H62         2.4570    5.0010   -3.7580 h1        1 MOL      0.019416
    136 H63         3.3860    2.5270   -3.5850 ho        1 MOL      0.402157
    137 H64         1.2750    2.1440   -3.2600 hc        1 MOL      0.103079
    138 H65         0.2990    3.4200   -3.8250 hc        1 MOL      0.103079
    139 H66         1.5830    2.9290   -4.8280 hc        1 MOL      0.103079
    140 N12         3.4380    4.5810   -0.2330 n         1 MOL     -0.305383
    141 C43         4.5090    5.1710    0.5860 c3        1 MOL     -0.344768
    142 C44         4.9090    4.3270    1.8290 c         1 MOL      0.880277
    143 O21         5.4830    4.8410    2.7550 o         1 MOL     -0.609621
    144 C45         5.6960    5.6980   -0.4150 c3        1 MOL      0.080131
    145 C46         6.4770    4.4220   -0.8380 c3        1 MOL     -0.102816
    146 C47         7.4290    4.6460   -2.0430 c3        1 MOL     -0.063841
    147 C48         6.5960    4.7580   -3.2830 c3        1 MOL      0.108501
    148 N13         7.3860    5.1830   -4.5130 n4        1 MOL     -0.434399
    149 H67         3.2360    3.5940   -0.1270 hn        1 MOL      0.194793
    150 H68         4.1560    6.1140    1.0010 h1        1 MOL      0.161929
    151 H69         6.3330    6.3870    0.1230 hc        1 MOL      0.014842
    152 H70         5.2680    6.2010   -1.2800 hc        1 MOL      0.014842
    153 H71         5.6440    3.8170   -1.2000 hc        1 MOL      0.068203
    154 H72         6.9590    3.9640    0.0250 hc        1 MOL      0.068203
    155 H73         8.2260    3.9220   -2.1900 hc        1 MOL      0.042670
    156 H74         7.8870    5.6060   -1.7800 hc        1 MOL      0.042670
    157 H75         5.7930    5.4910   -3.1870 hx        1 MOL      0.068894
    158 H76         5.9490    3.9040   -3.4570 hx        1 MOL      0.068894
    159 H77         8.0410    5.9020   -4.2500 hn        1 MOL      0.310342
    160 H78         7.9710    4.4410   -4.8780 hn        1 MOL      0.310342
    161 H79         6.7590    5.5580   -5.2130 hn        1 MOL      0.310342
    162 N14         4.5040    3.0840    1.9260 n         1 MOL     -0.628511
    163 C49         4.8330    2.1920    3.0460 c3        1 MOL     -0.417605
    164 C50         6.1560    1.5160    2.8520 c         1 MOL      0.632527
    165 O22         6.3260    0.7560    1.8900 o         1 MOL     -0.500152
    166 C51         3.6670    1.2630    3.3470 c3        1 MOL      0.212908
    167 C52         3.8770    0.4810    4.6530 c3        1 MOL      0.024333
    168 C53         2.7830   -0.5310    4.8300 c         1 MOL      0.755233
    169 O23         3.0110   -1.7560    4.9060 o         1 MOL     -0.839860
    170 O24         1.6240   -0.1720    4.7600 o         1 MOL     -0.839860
    171 H80         4.0430    2.7500    1.0990 hn        1 MOL      0.348678
    172 H81         4.8900    2.7740    3.9730 h1        1 MOL      0.190919
    173 H82         3.4080    0.5430    2.5810 hc        1 MOL      0.062511
    174 H83         2.7670    1.8110    3.6230 hc        1 MOL      0.062511
    175 H84         4.0340    1.1220    5.5270 hc        1 MOL     -0.033275
    176 H85         4.8320   -0.0490    4.5540 hc        1 MOL     -0.033275
    177 N15         7.1120    1.6020    3.8110 n         1 MOL     -0.353438
    178 C54         8.5010    1.0100    3.6230 c3        1 MOL     -0.026128
    179 H86         8.7750    0.4380    4.5100 h1        1 MOL      0.059635
    180 H87         8.5020    0.3540    2.7520 h1        1 MOL      0.059635
    181 H88         9.2220    1.8140    3.4740 h1        1 MOL      0.059635
    182 H89         7.0100    2.1640    4.6400 hn        1 MOL      0.254671
    183 Ca1         0.4350   -2.5200    4.9410 Ca        1 MOL      1.759735
    184 O25         2.7590   -3.7850    3.0150 oh        1 MOL     -0.903303
    185 H90         3.6450   -4.1370    2.9080 ho        1 MOL      0.451636
    186 H91         2.8850   -2.9510    3.4670 ho        1 MOL      0.451636
    187 O26        -1.5950   -0.6930    4.9330 oh        1 MOL     -0.903303
    188 H92        -1.7570    0.0820    4.3940 ho        1 MOL      0.451636
    189 H93        -1.9470   -0.4580    5.7880 ho        1 MOL      0.451636
    190 O27        -1.8080   -3.7170    6.1180 oh        1 MOL     -0.903303
    191 H94        -1.8220   -4.6760    6.2080 ho        1 MOL      0.451636
    192 H95        -2.7340   -3.4730    6.0460 ho        1 MOL      0.451636
@<TRIPOS>BOND
     1    1    2 1   
     2    1    4 1   
     3    1    5 1   
     4    1    6 1   
     5    2    3 2   
     6    2    7 1   
     7    7    8 1   
     8    7   15 1   
     9    8    9 1   
    10    8   11 1   
    11    8   16 1   
    12    9   10 2   
    13    9   19 1   
    14   11   12 1   
    15   11   17 1   
    16   11   18 1   
    17   12   13 1   
    18   12   14 1   
    19   19   20 1   
    20   19   28 1   
    21   20   21 1   
    22   20   23 1   
    23   20   29 1   
    24   21   22 2   
    25   21   41 1   
    26   23   24 1   
    27   23   30 1   
    28   23   31 1   
    29   24   25 1   
    30   24   32 1   
    31   24   33 1   
    32   25   26 1   
    33   25   34 1   
    34   25   35 1   
    35   26   27 1   
    36   26   36 1   
    37   26   37 1   
    38   27   38 1   
    39   27   39 1   
    40   27   40 1   
    41   41   42 1   
    42   41   49 1   
    43   42   43 1   
    44   42   45 1   
    45   42   50 1   
    46   43   44 2   
    47   43   53 1   
    48   45   46 1   
    49   45   51 1   
    50   45   52 1   
    51   46   47 1   
    52   46   48 1   
    53   53   54 1   
    54   53   57 1   
    55   54   55 1   
    56   54   58 1   
    57   54   59 1   
    58   55   56 2   
    59   55   60 1   
    60   60   61 1   
    61   60   68 1   
    62   61   62 1   
    63   61   64 1   
    64   61   69 1   
    65   62   63 2   
    66   62   72 1   
    67   64   65 1   
    68   64   70 1   
    69   64   71 1   
    70   65   66 1   
    71   65   67 1   
    72   72   73 1   
    73   72   76 1   
    74   73   74 1   
    75   73   77 1   
    76   73   78 1   
    77   74   75 2   
    78   74   79 1   
    79   79   80 1   
    80   79   86 1   
    81   80   81 1   
    82   80   83 1   
    83   80   87 1   
    84   81   82 2   
    85   81   93 1   
    86   83   84 1   
    87   83   85 1   
    88   83   88 1   
    89   84   90 1   
    90   84   91 1   
    91   84   92 1   
    92   85   89 1   
    93   93   94 1   
    94   93  101 1   
    95   94   95 1   
    96   94   97 1   
    97   94  102 1   
    98   95   96 2   
    99   95  112 1   
   100   97   98 1   
   101   97   99 1   
   102   97  103 1   
   103   98  100 1   
   104   98  104 1   
   105   98  105 1   
   106   99  106 1   
   107   99  107 1   
   108   99  108 1   
   109  100  109 1   
   110  100  110 1   
   111  100  111 1   
   112  112  113 1   
   113  112  119 1   
   114  113  114 1   
   115  113  116 1   
   116  113  120 1   
   117  114  115 2   
   118  114  126 1   
   119  116  117 1   
   120  116  118 1   
   121  116  121 1   
   122  117  123 1   
   123  117  124 1   
   124  117  125 1   
   125  118  122 1   
   126  126  127 1   
   127  126  133 1   
   128  127  128 1   
   129  127  130 1   
   130  127  134 1   
   131  128  129 2   
   132  128  140 1   
   133  130  131 1   
   134  130  132 1   
   135  130  135 1   
   136  131  137 1   
   137  131  138 1   
   138  131  139 1   
   139  132  136 1   
   140  140  141 1   
   141  140  149 1   
   142  141  142 1   
   143  141  144 1   
   144  141  150 1   
   145  142  143 2   
   146  142  162 1   
   147  144  145 1   
   148  144  151 1   
   149  144  152 1   
   150  145  146 1   
   151  145  153 1   
   152  145  154 1   
   153  146  147 1   
   154  146  155 1   
   155  146  156 1   
   156  147  148 1   
   157  147  157 1   
   158  147  158 1   
   159  148  159 1   
   160  148  160 1   
   161  148  161 1   
   162  162  163 1   
   163  162  171 1   
   164  163  164 1   
   165  163  166 1   
   166  163  172 1   
   167  164  165 2   
   168  164  177 1   
   169  166  167 1   
   170  166  173 1   
   171  166  174 1   
   172  167  168 1   
   173  167  175 1   
   174  167  176 1   
   175  168  169 1   
   176  168  170 1   
   177  177  178 1   
   178  177  182 1   
   179  178  179 1   
   180  178  180 1   
   181  178  181 1   
   182  184  185 1   
   183  184  186 1   
   184  187  188 1   
   185  187  189 1   
   186  190  191 1   
   187  190  192 1   
@<TRIPOS>SUBSTRUCTURE
     1 MOL         1 TEMP              0 ****  ****    0 ROOT
