@<TRIPOS>MOLECULE
MOL
  192   187     1     0     0
SMALL
resp


@<TRIPOS>ATOM
      1 C1         -8.8750   -0.4050   -3.1020 c3        1 MOL     -0.612059
      2 C2         -7.9890   -0.3980   -1.8210 c         1 MOL      0.896596
      3 O1         -6.7370   -0.3320   -1.8890 o         1 MOL     -0.691028
      4 H1         -8.2440   -0.2590   -3.9800 hc        1 MOL      0.159627
      5 H2         -9.3920   -1.3620   -3.1820 hc        1 MOL      0.159627
      6 H3         -9.6070    0.4010   -3.0430 hc        1 MOL      0.159627
      7 N1         -8.5490   -0.4380   -0.5710 n         1 MOL     -0.802354
      8 C3         -7.6350   -0.2240    0.6600 c3        1 MOL      0.230988
      9 C4         -6.8460   -1.4260    1.2090 c         1 MOL      0.519015
     10 O2         -6.7460   -1.5350    2.4440 o         1 MOL     -0.503818
     11 C5         -8.4460    0.5560    1.7580 c3        1 MOL     -0.260528
     12 C6         -9.0840    1.8140    1.3680 c         1 MOL      0.753433
     13 O3         -8.6380    2.5710    0.4940 o         1 MOL     -0.662508
     14 O4        -10.0930    2.1690    2.0340 o         1 MOL     -0.662508
     15 H4         -9.5360   -0.5590   -0.4160 hn        1 MOL      0.374819
     16 H5         -6.8740    0.5100    0.3980 h1        1 MOL      0.061372
     17 H6         -7.8430    0.9050    2.5960 hc        1 MOL      0.068890
     18 H7         -9.1480   -0.1230    2.2460 hc        1 MOL      0.068890
     19 N2         -6.4530   -2.3860    0.3250 n         1 MOL     -0.387182
     20 C7         -5.9470   -3.7350    0.6660 c3        1 MOL     -0.014634
     21 C8         -4.4440   -3.8780    1.1860 c         1 MOL      0.580086
     22 O5         -4.1880   -4.8880    1.8320 o         1 MOL     -0.589179
     23 C9         -6.1470   -4.6470   -0.5480 c3        1 MOL      0.005393
     24 C10        -7.6270   -4.9400   -0.8260 c3        1 MOL      0.189188
     25 C11        -7.7070   -6.0620   -1.8480 c3        1 MOL     -0.018489
     26 C12        -9.1450   -6.0020   -2.2850 c3        1 MOL      0.103096
     27 N3         -9.6010   -6.8810   -3.4090 n4        1 MOL     -0.228000
     28 H8         -6.5690   -2.1480   -0.6480 hn        1 MOL      0.238698
     29 H9         -6.5140   -4.1770    1.4830 h1        1 MOL      0.091932
     30 H10        -5.6450   -5.5990   -0.4180 hc        1 MOL     -0.004005
     31 H11        -5.7590   -4.1620   -1.4420 hc        1 MOL     -0.004005
     32 H12        -8.0690   -4.0170   -1.2080 hc        1 MOL     -0.055487
     33 H13        -8.1580   -5.1850    0.0900 hc        1 MOL     -0.055487
     34 H14        -7.5300   -7.0640   -1.4550 hc        1 MOL      0.023744
     35 H15        -7.0980   -5.8360   -2.7210 hc        1 MOL      0.023744
     36 H16        -9.5080   -4.9830   -2.4180 hx        1 MOL      0.042976
     37 H17        -9.7870   -6.3610   -1.4780 hx        1 MOL      0.042976
     38 H18        -8.9610   -6.7200   -4.1750 hn        1 MOL      0.221880
     39 H19        -9.4490   -7.8420   -3.1750 hn        1 MOL      0.221880
     40 H20       -10.5320   -6.7350   -3.7730 hn        1 MOL      0.221880
     41 N4         -3.5050   -3.1430    0.7240 n         1 MOL     -0.375386
     42 C13        -3.5270   -2.0960   -0.2920 c3        1 MOL     -0.059872
     43 C14        -3.8050   -0.7020    0.3880 c         1 MOL      0.109640
     44 O6         -3.6520   -0.5360    1.6300 o         1 MOL     -0.389922
     45 C15        -2.3720   -2.2350   -1.1990 c3        1 MOL     -0.058814
     46 C16        -1.0450   -2.1080   -0.4830 c         1 MOL      0.681075
     47 O7         -0.9600   -1.4140    0.5890 o         1 MOL     -0.646054
     48 O8         -0.0860   -2.7560   -0.9380 o         1 MOL     -0.646054
     49 H21        -2.6240   -3.2590    1.2060 hn        1 MOL      0.326310
     50 H22        -4.3600   -2.1720   -0.9900 h1        1 MOL      0.105524
     51 H23        -2.5370   -1.5080   -1.9940 hc        1 MOL      0.027144
     52 H24        -2.3540   -3.2340   -1.6280 hc        1 MOL      0.027144
     53 N5         -4.1980    0.2720   -0.4110 n         1 MOL     -0.056831
     54 C17        -4.3990    1.6580    0.1140 c3        1 MOL     -0.304784
     55 C18        -3.1890    2.4070    0.6050 c         1 MOL      0.563588
     56 O9         -2.0340    1.9360    0.5370 o         1 MOL     -0.656137
     57 H25        -4.2310    0.0460   -1.3940 hn        1 MOL      0.273063
     58 H26        -5.0620    1.6160    0.9810 h1        1 MOL      0.158769
     59 H27        -4.9000    2.2690   -0.6330 h1        1 MOL      0.158769
     60 N6         -3.4550    3.6230    1.0390 n         1 MOL     -0.348678
     61 C19        -2.4350    4.5860    1.5430 c3        1 MOL      0.160332
     62 C20        -2.7550    6.0600    1.0530 c         1 MOL      0.550123
     63 O10        -3.9170    6.3440    0.6950 o         1 MOL     -0.552798
     64 C21        -2.3460    4.4630    3.0560 c3        1 MOL     -0.462628
     65 C22        -1.6520    3.2130    3.5110 c         1 MOL      0.818403
     66 O11        -0.6160    2.8680    2.9510 o         1 MOL     -0.689272
     67 O12        -2.0970    2.6650    4.4920 o         1 MOL     -0.689272
     68 H28        -4.3630    4.0340    0.8910 hn        1 MOL      0.267191
     69 H29        -1.4900    4.3500    1.0620 h1        1 MOL      0.074648
     70 H30        -3.3540    4.4360    3.4590 hc        1 MOL      0.115426
     71 H31        -1.7910    5.2940    3.5090 hc        1 MOL      0.115426
     72 N7         -1.8570    7.0280    0.9270 n         1 MOL     -0.514756
     73 C23        -0.4690    6.9810    1.3170 c3        1 MOL      0.056468
     74 C24         0.3310    6.2220    0.2420 c         1 MOL      0.618677
     75 O13        -0.0320    6.2880   -0.9440 o         1 MOL     -0.522472
     76 H32        -2.2590    7.9440    0.7980 hn        1 MOL      0.334116
     77 H33        -0.2320    6.6310    2.3230 h1        1 MOL      0.043439
     78 H34         0.0620    7.9290    1.2690 h1        1 MOL      0.043439
     79 N8          1.4070    5.4830    0.6340 n         1 MOL     -0.677393
     80 C25         2.2560    4.7770   -0.3730 c3        1 MOL      0.132552
     81 C26         1.5260    3.4440   -0.8190 c         1 MOL      0.845026
     82 O14         0.7970    2.8350   -0.0390 o         1 MOL     -0.719894
     83 C27         3.6560    4.4690    0.1330 c3        1 MOL      0.251269
     84 C28         4.5750    3.8510   -0.9390 c3        1 MOL     -0.283644
     85 O15         3.6440    3.6430    1.2640 oh        1 MOL     -0.661328
     86 H35         1.6360    5.3700    1.6090 hn        1 MOL      0.340077
     87 H36         2.3500    5.3670   -1.2790 h1        1 MOL      0.032438
     88 H37         4.0800    5.4280    0.4210 h1        1 MOL      0.025987
     89 H38         4.4010    3.9270    1.7840 ho        1 MOL      0.441599
     90 H39         4.6410    4.4990   -1.8160 hc        1 MOL      0.075259
     91 H40         5.6040    3.7630   -0.5860 hc        1 MOL      0.075259
     92 H41         4.1210    2.8970   -1.2220 hc        1 MOL      0.075259
     93 N9          1.5790    3.0770   -2.1080 n         1 MOL     -0.611686
     94 C29         0.9130    2.0150   -2.8140 c3        1 MOL      0.099712
     95 C30         1.3140    0.6260   -2.2480 c         1 MOL      0.488989
     96 O16         0.7150    0.1650   -1.2900 o         1 MOL     -0.587278
     97 C31        -0.6400    2.1750   -2.8950 c3        1 MOL      0.044317
     98 C32        -0.9580    3.5050   -3.6360 c3        1 MOL     -0.020090
     99 C33        -1.2270    0.9770   -3.6640 c3        1 MOL     -0.425426
    100 C34        -2.4440    3.8820   -3.6190 c3        1 MOL     -0.001313
    101 H42         2.1180    3.6790   -2.7230 hn        1 MOL      0.272311
    102 H43         1.2190    2.0380   -3.8530 h1        1 MOL      0.036793
    103 H44        -1.0530    2.1850   -1.8860 hc        1 MOL      0.156035
    104 H45        -0.6170    3.4970   -4.6710 hc        1 MOL      0.000390
    105 H46        -0.5230    4.3370   -3.0750 hc        1 MOL      0.000390
    106 H47        -0.9260    0.0210   -3.2180 hc        1 MOL      0.112077
    107 H48        -2.3100    1.0970   -3.6210 hc        1 MOL      0.112077
    108 H49        -1.0720    0.9020   -4.7390 hc        1 MOL      0.112077
    109 H50        -3.1260    3.0600   -3.8200 hc        1 MOL      0.002552
    110 H51        -2.7350    4.2050   -2.6140 hc        1 MOL      0.002552
    111 H52        -2.6600    4.7300   -4.2720 hc        1 MOL      0.002552
    112 N10         2.3160    0.0460   -2.9060 n         1 MOL     -0.302929
    113 C35         2.7860   -1.3490   -2.7760 c3        1 MOL     -0.231771
    114 C36         4.3310   -1.4810   -2.9710 c         1 MOL      0.372068
    115 O17         4.8560   -2.5840   -2.9250 o         1 MOL     -0.505603
    116 C37         1.9890   -2.2490   -3.7240 c3        1 MOL      0.547500
    117 C38         2.1730   -1.9180   -5.1830 c3        1 MOL     -0.330360
    118 O18         0.6210   -2.0780   -3.4990 oh        1 MOL     -0.591309
    119 H53         2.7360    0.6510   -3.5900 hn        1 MOL      0.238881
    120 H54         2.5980   -1.7250   -1.7710 h1        1 MOL      0.183604
    121 H55         2.3010   -3.2860   -3.5980 h1        1 MOL     -0.017738
    122 H56         0.5030   -2.4010   -2.5960 ho        1 MOL      0.304018
    123 H57         1.9340   -0.8730   -5.3900 hc        1 MOL      0.067513
    124 H58         3.1820   -2.2230   -5.4700 hc        1 MOL      0.067513
    125 H59         1.4570   -2.6060   -5.6230 hc        1 MOL      0.067513
    126 N11         5.0000   -0.3460   -3.0930 n         1 MOL     -0.152938
    127 C39         6.4590   -0.3250   -3.1260 c3        1 MOL      0.002386
    128 C40         6.9020   -0.4320   -1.6710 c         1 MOL      0.312876
    129 O19         7.2560    0.5230   -1.0170 o         1 MOL     -0.447745
    130 C41         6.9160    1.0360   -3.7310 c3        1 MOL      0.272656
    131 C42         6.8990    0.8710   -5.2640 c3        1 MOL     -0.197103
    132 O20         6.1410    2.1560   -3.3780 oh        1 MOL     -0.552164
    133 H60         4.5390    0.5580   -3.1390 hn        1 MOL      0.152531
    134 H61         6.8740   -1.1140   -3.7560 h1        1 MOL      0.076791
    135 H62         7.9430    1.2890   -3.4610 h1        1 MOL      0.061145
    136 H63         5.4890    2.2420   -4.0860 ho        1 MOL      0.373565
    137 H64         6.0550    0.3070   -5.6550 hc        1 MOL      0.041146
    138 H65         7.0210    1.8200   -5.7840 hc        1 MOL      0.041146
    139 H66         7.7630    0.2210   -5.4510 hc        1 MOL      0.041146
    140 N12         6.8050   -1.6800   -1.2460 n         1 MOL     -0.462602
    141 C43         6.6140   -2.1270    0.1170 c3        1 MOL      0.236438
    142 C44         5.3690   -1.5730    0.8190 c         1 MOL      0.308571
    143 O21         4.7040   -0.6570    0.3230 o         1 MOL     -0.364994
    144 C45         7.8790   -1.8470    0.9150 c3        1 MOL     -0.251426
    145 C46         9.2090   -2.0500    0.1820 c3        1 MOL      0.134248
    146 C47        10.2970   -1.9420    1.1640 c3        1 MOL     -0.016886
    147 C48        11.5740   -1.5800    0.4320 c3        1 MOL     -0.113787
    148 N13        12.2150   -2.8220   -0.1070 n4        1 MOL     -0.177852
    149 H67         6.6360   -2.3090   -2.0120 hn        1 MOL      0.279777
    150 H68         6.6850   -3.2150    0.1430 h1        1 MOL      0.040584
    151 H69         7.9550   -2.3410    1.8880 hc        1 MOL      0.089513
    152 H70         7.9280   -0.8050    1.2330 hc        1 MOL      0.089513
    153 H71         9.3070   -1.3660   -0.6700 hc        1 MOL     -0.014014
    154 H72         9.1420   -3.0420   -0.2740 hc        1 MOL     -0.014014
    155 H73        10.3730   -2.8430    1.7540 hc        1 MOL      0.044801
    156 H74        10.0880   -1.1260    1.8650 hc        1 MOL      0.044801
    157 H75        12.2910   -1.0540    1.0660 hx        1 MOL      0.128316
    158 H76        11.2620   -0.9590   -0.4020 hx        1 MOL      0.128316
    159 H77        12.4370   -3.5090    0.5960 hn        1 MOL      0.219737
    160 H78        11.5810   -3.3360   -0.7020 hn        1 MOL      0.219737
    161 H79        13.0450   -2.6750   -0.6730 hn        1 MOL      0.219737
    162 N14         5.0080   -2.2480    1.9210 n         1 MOL     -0.432520
    163 C49         3.7970   -1.9490    2.7020 c3        1 MOL      0.156902
    164 C50         2.5120   -2.0400    1.8230 c         1 MOL      0.395142
    165 O22         1.5950   -1.2690    2.0610 o         1 MOL     -0.644952
    166 C51         3.5960   -2.7700    4.0310 c3        1 MOL      0.158298
    167 C52         4.9120   -2.7540    4.8070 c3        1 MOL     -0.262798
    168 C53         4.7790   -3.8470    5.8970 c         1 MOL      0.656624
    169 O23         4.7740   -5.0710    5.5970 o         1 MOL     -0.625112
    170 O24         4.7700   -3.5080    7.1720 o         1 MOL     -0.625112
    171 H80         5.6770   -2.8800    2.3600 hn        1 MOL      0.282466
    172 H81         3.9100   -0.8890    2.9300 h1        1 MOL      0.044558
    173 H82         3.3870   -3.8080    3.7830 hc        1 MOL      0.016338
    174 H83         2.7430   -2.4310    4.6180 hc        1 MOL      0.016338
    175 H84         5.1710   -1.7990    5.2590 hc        1 MOL      0.020835
    176 H85         5.6740   -3.0980    4.0930 hc        1 MOL      0.020835
    177 N15         2.2690   -2.8710    0.8260 n         1 MOL     -0.142333
    178 C54         2.7380   -4.2310    0.5860 c3        1 MOL     -0.052497
    179 H86         1.9680   -4.9400    0.8910 h1        1 MOL      0.028833
    180 H87         2.9510   -4.3600   -0.4760 h1        1 MOL      0.028833
    181 H88         3.6450   -4.4100    1.1630 h1        1 MOL      0.028833
    182 H89         1.3700   -2.6730    0.4200 hn        1 MOL      0.272003
    183 Ca1         0.1900    0.7580    1.4990 Ca        1 MOL      1.834684
    184 O25         1.5760    1.1510    3.8720 oh        1 MOL     -0.874175
    185 H90         2.5160    1.1140    4.0610 ho        1 MOL      0.411651
    186 H91         1.2050    1.5870    4.6430 ho        1 MOL      0.411651
    187 O26        -1.6710    0.1130    3.2140 oh        1 MOL     -0.874175
    188 H92        -2.0630    0.7600    3.7930 ho        1 MOL      0.411651
    189 H93        -2.3890   -0.1640    2.6500 ho        1 MOL      0.411651
    190 O27         2.7210    1.0970    1.0210 oh        1 MOL     -0.874175
    191 H94         3.5510    0.6730    0.8510 ho        1 MOL      0.411651
    192 H95         2.9360    2.0140    1.1750 ho        1 MOL      0.411651
@<TRIPOS>BOND
     1    1    2 1   
     2    1    4 1   
     3    1    5 1   
     4    1    6 1   
     5    2    3 2   
     6    2    7 1   
     7    7    8 1   
     8    7   15 1   
     9    8    9 1   
    10    8   11 1   
    11    8   16 1   
    12    9   10 2   
    13    9   19 1   
    14   11   12 1   
    15   11   17 1   
    16   11   18 1   
    17   12   13 1   
    18   12   14 1   
    19   19   20 1   
    20   19   28 1   
    21   20   21 1   
    22   20   23 1   
    23   20   29 1   
    24   21   22 2   
    25   21   41 1   
    26   23   24 1   
    27   23   30 1   
    28   23   31 1   
    29   24   25 1   
    30   24   32 1   
    31   24   33 1   
    32   25   26 1   
    33   25   34 1   
    34   25   35 1   
    35   26   27 1   
    36   26   36 1   
    37   26   37 1   
    38   27   38 1   
    39   27   39 1   
    40   27   40 1   
    41   41   42 1   
    42   41   49 1   
    43   42   43 1   
    44   42   45 1   
    45   42   50 1   
    46   43   44 2   
    47   43   53 1   
    48   45   46 1   
    49   45   51 1   
    50   45   52 1   
    51   46   47 1   
    52   46   48 1   
    53   53   54 1   
    54   53   57 1   
    55   54   55 1   
    56   54   58 1   
    57   54   59 1   
    58   55   56 2   
    59   55   60 1   
    60   60   61 1   
    61   60   68 1   
    62   61   62 1   
    63   61   64 1   
    64   61   69 1   
    65   62   63 2   
    66   62   72 1   
    67   64   65 1   
    68   64   70 1   
    69   64   71 1   
    70   65   66 1   
    71   65   67 1   
    72   72   73 1   
    73   72   76 1   
    74   73   74 1   
    75   73   77 1   
    76   73   78 1   
    77   74   75 2   
    78   74   79 1   
    79   79   80 1   
    80   79   86 1   
    81   80   81 1   
    82   80   83 1   
    83   80   87 1   
    84   81   82 2   
    85   81   93 1   
    86   83   84 1   
    87   83   85 1   
    88   83   88 1   
    89   84   90 1   
    90   84   91 1   
    91   84   92 1   
    92   85   89 1   
    93   93   94 1   
    94   93  101 1   
    95   94   95 1   
    96   94   97 1   
    97   94  102 1   
    98   95   96 2   
    99   95  112 1   
   100   97   98 1   
   101   97   99 1   
   102   97  103 1   
   103   98  100 1   
   104   98  104 1   
   105   98  105 1   
   106   99  106 1   
   107   99  107 1   
   108   99  108 1   
   109  100  109 1   
   110  100  110 1   
   111  100  111 1   
   112  112  113 1   
   113  112  119 1   
   114  113  114 1   
   115  113  116 1   
   116  113  120 1   
   117  114  115 2   
   118  114  126 1   
   119  116  117 1   
   120  116  118 1   
   121  116  121 1   
   122  117  123 1   
   123  117  124 1   
   124  117  125 1   
   125  118  122 1   
   126  126  127 1   
   127  126  133 1   
   128  127  128 1   
   129  127  130 1   
   130  127  134 1   
   131  128  129 2   
   132  128  140 1   
   133  130  131 1   
   134  130  132 1   
   135  130  135 1   
   136  131  137 1   
   137  131  138 1   
   138  131  139 1   
   139  132  136 1   
   140  140  141 1   
   141  140  149 1   
   142  141  142 1   
   143  141  144 1   
   144  141  150 1   
   145  142  143 2   
   146  142  162 1   
   147  144  145 1   
   148  144  151 1   
   149  144  152 1   
   150  145  146 1   
   151  145  153 1   
   152  145  154 1   
   153  146  147 1   
   154  146  155 1   
   155  146  156 1   
   156  147  148 1   
   157  147  157 1   
   158  147  158 1   
   159  148  159 1   
   160  148  160 1   
   161  148  161 1   
   162  162  163 1   
   163  162  171 1   
   164  163  164 1   
   165  163  166 1   
   166  163  172 1   
   167  164  165 2   
   168  164  177 1   
   169  166  167 1   
   170  166  173 1   
   171  166  174 1   
   172  167  168 1   
   173  167  175 1   
   174  167  176 1   
   175  168  169 1   
   176  168  170 1   
   177  177  178 1   
   178  177  182 1   
   179  178  179 1   
   180  178  180 1   
   181  178  181 1   
   182  184  185 1   
   183  184  186 1   
   184  187  188 1   
   185  187  189 1   
   186  190  191 1   
   187  190  192 1   
@<TRIPOS>SUBSTRUCTURE
     1 MOL         1 TEMP              0 ****  ****    0 ROOT
