@<TRIPOS>MOLECULE
MOL
  181   177     1     0     0
SMALL
resp


@<TRIPOS>ATOM
      1 C1          1.1530    7.5770   -1.1700 c3        1 MOL     -0.420487
      2 C2          2.4650    6.9890   -0.7880 c         1 MOL      0.707697
      3 O1          2.9430    7.3410    0.3030 o         1 MOL     -0.610618
      4 H1          0.4820    7.5540   -0.3110 hc        1 MOL      0.103383
      5 H2          1.2960    8.6080   -1.4910 hc        1 MOL      0.103383
      6 H3          0.7190    6.9980   -1.9850 hc        1 MOL      0.103383
      7 N1          3.2100    6.3720   -1.6510 n         1 MOL     -0.503204
      8 C3          4.4250    5.5960   -1.2760 c3        1 MOL      0.056558
      9 C4          4.1400    4.3900   -0.3390 c         1 MOL      0.591314
     10 O2          3.2340    3.6070   -0.4690 o         1 MOL     -0.591951
     11 C5          5.1940    5.2110   -2.5140 c3        1 MOL     -0.141883
     12 C6          6.5230    4.5080   -2.0820 c         1 MOL      0.670237
     13 O3          6.4910    3.2740   -1.9580 o         1 MOL     -0.712706
     14 O4          7.5260    5.2000   -1.7470 o         1 MOL     -0.712706
     15 H4          2.6780    6.1770   -2.5000 hn        1 MOL      0.279251
     16 H5          5.0640    6.3250   -0.7710 h1        1 MOL      0.093567
     17 H6          5.4440    6.0600   -3.1600 hc        1 MOL     -0.000041
     18 H7          4.7000    4.5140   -3.1920 hc        1 MOL     -0.000041
     19 N2          4.8850    4.3320    0.7830 n         1 MOL     -0.426022
     20 C7          4.9710    3.3400    1.8420 c3        1 MOL      0.283672
     21 C8          3.7200    3.2230    2.7900 c         1 MOL      0.381269
     22 O5          3.1130    4.2300    3.1580 o         1 MOL     -0.560319
     23 C9          6.3440    3.4880    2.4520 c3        1 MOL     -0.330816
     24 H8          5.4990    5.1190    0.9380 hn        1 MOL      0.250093
     25 H9          4.9470    2.4000    1.2860 h1        1 MOL      0.031929
     26 H10         6.5960    4.4790    2.8460 hc        1 MOL      0.088286
     27 H11         6.3430    2.7280    3.2350 hc        1 MOL      0.088286
     28 H12         7.1280    3.2070    1.7460 hc        1 MOL      0.088286
     29 N3          3.4020    2.1050    3.4190 n         1 MOL     -0.188336
     30 C10         4.1370    0.8740    3.4860 c3        1 MOL     -0.046540
     31 C11         4.2440    0.0250    2.1860 c         1 MOL      0.799244
     32 O6          3.2550   -0.1280    1.4800 o         1 MOL     -0.575509
     33 C12         3.6920   -0.0520    4.6930 c3        1 MOL     -0.378259
     34 C13         2.2080   -0.1420    4.8580 c         1 MOL      0.712616
     35 O7          1.4300    0.1930    3.9550 o         1 MOL     -0.679816
     36 O8          1.7610   -0.6830    5.8820 o         1 MOL     -0.679816
     37 H13         2.5740    2.0210    3.9980 hn        1 MOL      0.221833
     38 H14         5.1700    1.1220    3.7730 h1        1 MOL      0.036321
     39 H15         4.1350    0.3220    5.6170 hc        1 MOL      0.099646
     40 H16         4.0590   -1.0550    4.4760 hc        1 MOL      0.099646
     41 N4          5.4310   -0.5520    1.9500 n         1 MOL     -0.715100
     42 C14         5.8490   -1.3510    0.7440 c3        1 MOL      0.362992
     43 C15         6.9710   -0.6960   -0.1450 c         1 MOL      0.339511
     44 O9          7.5650    0.4070    0.1770 o         1 MOL     -0.454560
     45 H17         6.0460   -0.5750    2.7400 hn        1 MOL      0.302914
     46 H18         4.9630   -1.4600    0.1150 h1        1 MOL     -0.007716
     47 H19         6.1000   -2.3730    1.0150 h1        1 MOL     -0.007716
     48 N5          7.4330   -1.3420   -1.2170 n         1 MOL     -0.460176
     49 C16         7.0100   -2.7850   -1.5900 c3        1 MOL      0.029493
     50 C17         5.7390   -2.9050   -2.3640 c         1 MOL      0.627479
     51 O10         5.4460   -4.0900   -2.7340 o         1 MOL     -0.538660
     52 C18         8.1890   -3.4880   -2.2010 c3        1 MOL     -0.192124
     53 C19         9.3350   -3.7830   -1.2300 c         1 MOL      0.621098
     54 N6          9.0670   -4.1420    0.0000 n         1 MOL     -0.747960
     55 O11        10.5260   -3.5860   -1.5470 o         1 MOL     -0.559457
     56 H20         8.1310   -0.8950   -1.7900 hn        1 MOL      0.348064
     57 H21         6.7760   -3.3310   -0.6760 h1        1 MOL      0.046524
     58 H22         8.5940   -3.0360   -3.1120 hc        1 MOL      0.076625
     59 H23         7.9060   -4.5060   -2.4640 hc        1 MOL      0.076625
     60 H24         8.1220   -4.4380    0.1680 hn        1 MOL      0.366245
     61 H25         9.8880   -4.3600    0.5540 hn        1 MOL      0.366245
     62 N7          4.9980   -1.8440   -2.6550 n         1 MOL     -0.503846
     63 C20         3.8380   -1.8390   -3.6610 c3        1 MOL     -0.143708
     64 C21         2.5440   -2.3350   -3.0470 c         1 MOL      0.587233
     65 O12         1.4540   -1.8540   -3.2190 o         1 MOL     -0.582452
     66 H26         5.2560   -0.9470   -2.2590 hn        1 MOL      0.365837
     67 H27         4.0550   -2.3800   -4.5760 h1        1 MOL      0.121343
     68 H28         3.5770   -0.7990   -3.8580 h1        1 MOL      0.121343
     69 N8          2.8440   -3.3060   -2.2120 n         1 MOL     -0.368235
     70 C22         1.9650   -4.2080   -1.3730 c3        1 MOL     -0.101245
     71 C23         0.6550   -3.4690   -0.7800 c         1 MOL      0.535674
     72 O13         0.7540   -2.6250    0.0830 o         1 MOL     -0.549460
     73 C24         2.8140   -4.8250   -0.1840 c3        1 MOL      0.336568
     74 C25         3.5980   -6.0900   -0.6220 c3        1 MOL     -0.306928
     75 O14         3.7670   -3.9520    0.3510 oh        1 MOL     -0.509562
     76 H29         3.8200   -3.5460   -2.2580 hn        1 MOL      0.233405
     77 H30         1.5000   -4.9940   -1.9720 h1        1 MOL      0.071043
     78 H31         2.0640   -5.1770    0.5140 h1        1 MOL      0.023897
     79 H32         3.2550   -3.5490    1.0590 ho        1 MOL      0.307856
     80 H33         2.9130   -6.8540   -0.9630 hc        1 MOL      0.069895
     81 H34         4.4540   -5.8810   -1.2510 hc        1 MOL      0.069895
     82 H35         4.0550   -6.3410    0.3410 hc        1 MOL      0.069895
     83 N9         -0.4660   -3.8610   -1.3460 n         1 MOL     -0.358911
     84 C26        -1.8100   -3.2310   -1.2080 c3        1 MOL     -0.274920
     85 C27        -2.4530   -3.5390    0.1840 c         1 MOL      0.540510
     86 O15        -2.5200   -4.7140    0.5990 o         1 MOL     -0.554753
     87 C28        -2.6060   -3.6120   -2.4780 c3        1 MOL      0.205373
     88 C29        -3.9560   -2.8730   -2.4480 c3        1 MOL      0.033945
     89 C30        -1.7560   -3.2830   -3.7430 c3        1 MOL     -0.312704
     90 C31        -5.0270   -3.3940   -3.4060 c3        1 MOL     -0.337269
     91 H36        -0.3830   -4.6360   -1.9780 hn        1 MOL      0.260992
     92 H37        -1.5890   -2.1610   -1.2490 h1        1 MOL      0.296395
     93 H38        -2.8060   -4.6780   -2.5160 hc        1 MOL      0.014670
     94 H39        -3.7890   -1.8150   -2.6060 hc        1 MOL      0.035176
     95 H40        -4.3910   -2.9340   -1.4540 hc        1 MOL      0.035176
     96 H41        -2.3280   -3.0840   -4.6440 hc        1 MOL      0.078510
     97 H42        -1.1510   -2.3910   -3.5360 hc        1 MOL      0.078510
     98 H43        -1.1190   -4.1400   -3.9600 hc        1 MOL      0.078510
     99 H44        -5.9710   -2.9060   -3.1680 hc        1 MOL      0.072274
    100 H45        -4.8390   -3.3000   -4.4730 hc        1 MOL      0.072274
    101 H46        -5.1510   -4.4610   -3.2000 hc        1 MOL      0.072274
    102 N10        -3.1210   -2.5310    0.7520 n         1 MOL     -0.069774
    103 C32        -3.9970   -2.7130    1.9350 c3        1 MOL     -0.000489
    104 C33        -5.4390   -2.1140    1.8290 c         1 MOL      0.376519
    105 O16        -6.2700   -2.3800    2.7590 o         1 MOL     -0.536529
    106 C34        -3.2730   -2.1550    3.1690 c3        1 MOL     -0.179363
    107 C35        -1.8320   -2.6910    3.3910 c         1 MOL      0.795164
    108 O17        -1.6980   -3.8050    3.9920 o         1 MOL     -0.708958
    109 O18        -0.8540   -1.9890    3.1300 o         1 MOL     -0.708958
    110 H47        -3.0920   -1.6130    0.3190 hn        1 MOL     -0.251253
    111 H48        -4.1330   -3.7940    2.0550 h1        1 MOL      0.095075
    112 H49        -3.9870   -2.2280    3.9790 hc        1 MOL      0.040644
    113 H50        -3.0930   -1.0970    2.9370 hc        1 MOL      0.040644
    114 N11        -5.6500   -1.2380    0.8880 n         1 MOL     -0.244135
    115 C36        -6.8630   -0.4240    0.6570 c3        1 MOL      0.377986
    116 C37        -6.6130    0.9770    0.2600 c         1 MOL      0.244472
    117 O19        -7.1500    1.4700   -0.7090 o         1 MOL     -0.481449
    118 C38        -7.6710   -1.2010   -0.3490 c3        1 MOL     -0.160094
    119 C39        -9.2160   -1.0300   -0.1320 ca        1 MOL      0.035541
    120 C40        -9.6850   -1.2790    1.1970 ca        1 MOL     -0.135912
    121 C41       -10.0910   -0.4940   -1.1180 ca        1 MOL     -0.135912
    122 C42       -11.1120   -1.1700    1.4030 ca        1 MOL     -0.098974
    123 C43       -11.4290   -0.2550   -0.8180 ca        1 MOL     -0.098974
    124 C44       -11.9630   -0.7020    0.3860 ca        1 MOL     -0.156616
    125 H51        -4.9540   -1.1160    0.1690 hn        1 MOL      0.146888
    126 H52        -7.4290   -0.4030    1.5890 h1        1 MOL      0.007120
    127 H53        -7.4400   -2.2680   -0.3110 hc        1 MOL      0.064735
    128 H54        -7.5350   -0.8760   -1.3810 hc        1 MOL      0.064735
    129 H55        -9.0900   -1.6630    2.0120 ha        1 MOL      0.112959
    130 H56        -9.6890   -0.4210   -2.1160 ha        1 MOL      0.112959
    131 H57       -11.5310   -1.4210    2.3630 ha        1 MOL      0.097855
    132 H58       -12.1260    0.1150   -1.5490 ha        1 MOL      0.097855
    133 H59       -13.0320   -0.7600    0.5570 ha        1 MOL      0.102585
    134 N12        -5.7590    1.7160    0.9690 n         1 MOL     -0.016870
    135 C45        -5.5320    3.1700    0.7580 c3        1 MOL     -0.057514
    136 C46        -5.0030    3.5620   -0.5900 c         1 MOL      0.295538
    137 O20        -5.2290    4.6710   -1.0550 o         1 MOL     -0.487534
    138 C47        -4.5370    3.5260    1.8480 c3        1 MOL      0.076692
    139 C48        -4.9470    2.6420    2.9990 c3        1 MOL     -0.100939
    140 C49        -5.2610    1.3330    2.3040 c3        1 MOL     -0.113546
    141 H60        -6.4490    3.7490    0.8840 h1        1 MOL      0.080594
    142 H61        -3.6050    3.1550    1.4250 hc        1 MOL      0.015491
    143 H62        -4.4210    4.5720    2.1400 hc        1 MOL      0.015491
    144 H63        -4.2050    2.5270    3.7850 hc        1 MOL      0.034134
    145 H64        -5.8870    3.0570    3.3580 hc        1 MOL      0.034134
    146 H65        -4.3350    0.8260    2.0330 h1        1 MOL      0.084884
    147 H66        -5.9410    0.7770    2.9360 h1        1 MOL      0.084884
    148 N13        -4.3260    2.5780   -1.2600 n         1 MOL     -0.078852
    149 C50        -3.7740    2.5740   -2.6620 c3        1 MOL     -0.396213
    150 C51        -4.9650    2.7710   -3.6100 c         1 MOL      0.609648
    151 O21        -4.9540    3.7450   -4.3560 o         1 MOL     -0.564516
    152 C52        -2.9250    1.3360   -2.9450 c3        1 MOL      0.160338
    153 C53        -1.8610    1.0590   -1.8900 c3        1 MOL     -0.213703
    154 C54        -2.2390    0.4310   -0.6120 c         1 MOL      0.389426
    155 O22        -1.4270   -0.1880    0.1130 o         1 MOL     -0.488071
    156 O23        -3.4260    0.2910   -0.2480 o         1 MOL     -0.488071
    157 H67        -4.2270    1.6900   -0.7920 hn        1 MOL      0.254567
    158 H68        -3.1150    3.4330   -2.6810 h1        1 MOL      0.161869
    159 H69        -2.3350    1.5730   -3.8350 hc        1 MOL     -0.013101
    160 H70        -3.5480    0.4570   -3.1220 hc        1 MOL     -0.013101
    161 H71        -1.3170    1.9740   -1.6780 hc        1 MOL      0.088512
    162 H72        -1.1190    0.3810   -2.3140 hc        1 MOL      0.088512
    163 N14        -5.9290    1.8840   -3.5780 n         1 MOL     -0.197624
    164 C55        -7.0010    1.9360   -4.5070 c3        1 MOL     -0.229315
    165 H73        -7.9390    2.0870   -3.9710 h1        1 MOL      0.088614
    166 H74        -6.8430    2.7630   -5.1990 h1        1 MOL      0.088614
    167 H75        -7.0470    1.0000   -5.0640 h1        1 MOL      0.088614
    168 H76        -6.0300    1.4090   -2.6930 hn        1 MOL      0.200677
    169 Ca1         0.5770   -0.3090    1.5890 Ca        1 MOL      1.598227
    170 O24        -1.5070    1.1230    2.6600 oh        1 MOL     -0.832877
    171 H77        -2.1780    0.4630    2.8510 ho        1 MOL      0.413627
    172 H78        -1.7790    1.8940    3.1630 ho        1 MOL      0.413627
    173 O25         1.6120    0.0790   -1.0090 oh        1 MOL     -0.832877
    174 H79         2.5550    0.2190   -0.9880 ho        1 MOL      0.413627
    175 H80         1.4320   -0.1880   -1.9180 ho        1 MOL      0.413627
    176 O26         1.2540    2.3130    1.1800 oh        1 MOL     -0.832877
    177 H81         0.8220    3.0360    1.6400 ho        1 MOL      0.413627
    178 H82         1.6920    2.7270    0.4350 ho        1 MOL      0.413627
    179 O27         1.6890   -2.6900    2.8520 oh        1 MOL     -0.832877
    180 H83         0.7610   -2.8830    2.9970 ho        1 MOL      0.413627
    181 H84         2.1470   -3.3720    3.3390 ho        1 MOL      0.413627
@<TRIPOS>BOND
     1    1    2 1   
     2    1    4 1   
     3    1    5 1   
     4    1    6 1   
     5    2    3 2   
     6    2    7 1   
     7    7    8 1   
     8    7   15 1   
     9    8    9 1   
    10    8   11 1   
    11    8   16 1   
    12    9   10 2   
    13    9   19 1   
    14   11   12 1   
    15   11   17 1   
    16   11   18 1   
    17   12   13 1   
    18   12   14 1   
    19   19   20 1   
    20   19   24 1   
    21   20   21 1   
    22   20   23 1   
    23   20   25 1   
    24   21   22 2   
    25   21   29 1   
    26   23   26 1   
    27   23   27 1   
    28   23   28 1   
    29   29   30 1   
    30   29   37 1   
    31   30   31 1   
    32   30   33 1   
    33   30   38 1   
    34   31   32 2   
    35   31   41 1   
    36   33   34 1   
    37   33   39 1   
    38   33   40 1   
    39   34   35 1   
    40   34   36 1   
    41   41   42 1   
    42   41   45 1   
    43   42   43 1   
    44   42   46 1   
    45   42   47 1   
    46   43   44 2   
    47   43   48 1   
    48   48   49 1   
    49   48   56 1   
    50   49   50 1   
    51   49   52 1   
    52   49   57 1   
    53   50   51 2   
    54   50   62 1   
    55   52   53 1   
    56   52   58 1   
    57   52   59 1   
    58   53   54 1   
    59   53   55 2   
    60   54   60 1   
    61   54   61 1   
    62   62   63 1   
    63   62   66 1   
    64   63   64 1   
    65   63   67 1   
    66   63   68 1   
    67   64   65 2   
    68   64   69 1   
    69   69   70 1   
    70   69   76 1   
    71   70   71 1   
    72   70   73 1   
    73   70   77 1   
    74   71   72 2   
    75   71   83 1   
    76   73   74 1   
    77   73   75 1   
    78   73   78 1   
    79   74   80 1   
    80   74   81 1   
    81   74   82 1   
    82   75   79 1   
    83   83   84 1   
    84   83   91 1   
    85   84   85 1   
    86   84   87 1   
    87   84   92 1   
    88   85   86 2   
    89   85  102 1   
    90   87   88 1   
    91   87   89 1   
    92   87   93 1   
    93   88   90 1   
    94   88   94 1   
    95   88   95 1   
    96   89   96 1   
    97   89   97 1   
    98   89   98 1   
    99   90   99 1   
   100   90  100 1   
   101   90  101 1   
   102  102  103 1   
   103  102  110 1   
   104  103  104 1   
   105  103  106 1   
   106  103  111 1   
   107  104  105 2   
   108  104  114 1   
   109  106  107 1   
   110  106  112 1   
   111  106  113 1   
   112  107  108 1   
   113  107  109 1   
   114  114  115 1   
   115  114  125 1   
   116  115  116 1   
   117  115  118 1   
   118  115  126 1   
   119  116  117 2   
   120  116  134 1   
   121  118  119 1   
   122  118  127 1   
   123  118  128 1   
   124  119  120 ar  
   125  119  121 ar  
   126  120  122 ar  
   127  120  129 1   
   128  121  123 ar  
   129  121  130 1   
   130  122  124 ar  
   131  122  131 1   
   132  123  124 ar  
   133  123  132 1   
   134  124  133 1   
   135  134  135 1   
   136  134  140 1   
   137  135  136 1   
   138  135  138 1   
   139  135  141 1   
   140  136  137 2   
   141  136  148 1   
   142  138  139 1   
   143  138  142 1   
   144  138  143 1   
   145  139  140 1   
   146  139  144 1   
   147  139  145 1   
   148  140  146 1   
   149  140  147 1   
   150  148  149 1   
   151  148  157 1   
   152  149  150 1   
   153  149  152 1   
   154  149  158 1   
   155  150  151 2   
   156  150  163 1   
   157  152  153 1   
   158  152  159 1   
   159  152  160 1   
   160  153  154 1   
   161  153  161 1   
   162  153  162 1   
   163  154  155 1   
   164  154  156 1   
   165  163  164 1   
   166  163  168 1   
   167  164  165 1   
   168  164  166 1   
   169  164  167 1   
   170  170  171 1   
   171  170  172 1   
   172  173  174 1   
   173  173  175 1   
   174  176  177 1   
   175  176  178 1   
   176  179  180 1   
   177  179  181 1   
@<TRIPOS>SUBSTRUCTURE
     1 MOL         1 TEMP              0 ****  ****    0 ROOT
