@<TRIPOS>MOLECULE
MOL
  201   193     1     0     0
SMALL
resp


@<TRIPOS>ATOM
      1 C1          4.7340   -4.7470   -0.0990 c3        1 MOL     -0.091033
      2 C2          3.9110   -3.4890   -0.4390 c         1 MOL      0.729564
      3 O1          4.4710   -2.4730   -0.8660 o         1 MOL     -0.632934
      4 H1          4.1670   -5.3780    0.5840 hc        1 MOL      0.013177
      5 H2          4.9460   -5.3020   -1.0130 hc        1 MOL      0.013177
      6 H3          5.6720   -4.4520    0.3730 hc        1 MOL      0.013177
      7 N1          2.5880   -3.5370   -0.3860 n         1 MOL     -0.624140
      8 C3          1.7880   -4.7630   -0.1230 c3        1 MOL     -0.037064
      9 C4          1.2270   -5.5020   -1.3370 c         1 MOL      0.546924
     10 O2          0.9320   -6.6920   -1.2900 o         1 MOL     -0.571224
     11 C5          0.5230   -4.2800    0.7060 c3        1 MOL     -0.761610
     12 C6          0.7540   -3.2300    1.7300 c         1 MOL      0.936584
     13 O3          1.6180   -3.4060    2.6100 o         1 MOL     -0.752850
     14 O4          0.0990   -2.1600    1.6180 o         1 MOL     -0.752850
     15 H4          2.0470   -2.7200   -0.6330 hn        1 MOL      0.352619
     16 H5          2.3580   -5.5040    0.4300 h1        1 MOL      0.137764
     17 H6          0.2160   -5.1580    1.2710 hc        1 MOL      0.243073
     18 H7         -0.2550   -3.9640    0.0170 hc        1 MOL      0.243073
     19 N2          1.1190   -4.7960   -2.4510 n         1 MOL     -0.146237
     20 C7          0.7910   -5.4010   -3.7410 c3        1 MOL     -0.386871
     21 C8         -0.7850   -5.3720   -3.9020 c         1 MOL      0.518506
     22 O5         -1.2580   -6.0580   -4.8230 o         1 MOL     -0.568460
     23 C9          1.3880   -4.5780   -4.9440 c3        1 MOL      0.294509
     24 C10         0.6450   -3.2560   -5.3640 c3        1 MOL     -0.026890
     25 C11         2.8600   -4.2650   -4.6720 c3        1 MOL     -0.284728
     26 C12         1.2900   -2.3850   -6.4400 c3        1 MOL     -0.381609
     27 H8          1.5240   -3.8710   -2.4020 hn        1 MOL      0.206111
     28 H9          1.1880   -6.4090   -3.8500 h1        1 MOL      0.164706
     29 H10         1.2970   -5.2680   -5.7860 hc        1 MOL     -0.044014
     30 H11         0.3840   -2.7130   -4.4570 hc        1 MOL      0.076863
     31 H12        -0.2230   -3.6360   -5.8980 hc        1 MOL      0.076863
     32 H13         3.4410   -5.0210   -4.1510 hc        1 MOL      0.070040
     33 H14         3.3640   -4.0820   -5.6220 hc        1 MOL      0.070040
     34 H15         2.8450   -3.3110   -4.1340 hc        1 MOL      0.070040
     35 H16         1.3780   -3.0830   -7.2750 hc        1 MOL      0.086670
     36 H17         0.6550   -1.5850   -6.8170 hc        1 MOL      0.086670
     37 H18         2.2410   -1.9820   -6.0970 hc        1 MOL      0.086670
     38 N3         -1.5790   -4.6110   -3.1220 n         1 MOL     -0.100807
     39 C13        -3.0320   -4.4820   -3.3160 c3        1 MOL     -0.155330
     40 C14        -3.7570   -4.2050   -1.9780 c         1 MOL      0.526932
     41 O6         -3.1640   -3.7910   -0.9520 o         1 MOL     -0.522974
     42 C15        -3.2920   -3.3220   -4.3280 c3        1 MOL     -0.057717
     43 C16        -4.7180   -3.1860   -4.8730 c         1 MOL      0.761839
     44 O7         -5.1840   -4.0510   -5.5880 o         1 MOL     -0.738132
     45 O8         -5.2320   -2.1400   -4.5610 o         1 MOL     -0.738132
     46 H19        -1.1180   -4.1260   -2.3610 hn        1 MOL      0.056981
     47 H20        -3.4370   -5.3780   -3.7940 h1        1 MOL      0.070412
     48 H21        -2.5980   -3.4270   -5.1690 hc        1 MOL     -0.010309
     49 H22        -3.0230   -2.3800   -3.8420 hc        1 MOL     -0.010309
     50 N4         -5.0660   -4.4110   -1.8480 n         1 MOL     -0.465638
     51 C17        -5.8400   -4.3600   -0.6060 c3        1 MOL      0.092951
     52 C18        -6.0240   -2.9460   -0.0790 c         1 MOL      0.559631
     53 O9         -5.8470   -1.9970   -0.8680 o         1 MOL     -0.466755
     54 H23        -5.6050   -4.6130   -2.6830 hn        1 MOL      0.300455
     55 H24        -5.2850   -4.8740    0.1840 h1        1 MOL      0.030992
     56 H25        -6.7120   -5.0090   -0.6200 h1        1 MOL      0.030992
     57 N5         -6.4440   -2.7120    1.1330 n         1 MOL     -0.654377
     58 C19        -6.5110   -1.3100    1.6940 c3        1 MOL      0.222303
     59 C20        -7.9460   -0.9120    2.0670 c         1 MOL      0.662624
     60 O10        -8.7800   -1.7910    2.2160 o         1 MOL     -0.575625
     61 C21        -5.4080   -1.1270    2.7930 c3        1 MOL     -0.179704
     62 C22        -5.5810   -2.0320    4.0120 c         1 MOL      0.755800
     63 O11        -6.0520   -1.5620    5.0020 o         1 MOL     -0.762327
     64 O12        -4.9890   -3.1340    3.9470 o         1 MOL     -0.762327
     65 H26        -6.7660   -3.4720    1.7290 hn        1 MOL      0.322247
     66 H27        -6.1970   -0.5840    0.9380 h1        1 MOL      0.052499
     67 H28        -5.2670   -0.0920    3.1050 hc        1 MOL      0.042831
     68 H29        -4.4740   -1.4280    2.3090 hc        1 MOL      0.042831
     69 N6         -8.2780    0.3870    2.3340 n         1 MOL     -0.717704
     70 C23        -7.4690    1.5610    2.0330 c3        1 MOL      0.178904
     71 C24        -7.7250    2.1190    0.6000 c         1 MOL      0.448153
     72 O13        -8.3260    1.4800   -0.2110 o         1 MOL     -0.491804
     73 H30        -9.2260    0.5580    2.6400 hn        1 MOL      0.338954
     74 H31        -6.4210    1.3260    2.2070 h1        1 MOL      0.018283
     75 H32        -7.5690    2.3740    2.7540 h1        1 MOL      0.018283
     76 N7         -7.2240    3.2720    0.2550 n         1 MOL     -0.426775
     77 C25        -5.9360    3.9360    0.6700 c3        1 MOL      0.011169
     78 C26        -4.6870    3.1420    0.3170 c         1 MOL      0.722120
     79 O14        -4.7240    1.9060    0.1690 o         1 MOL     -0.506526
     80 C27        -5.9430    4.5080    2.0700 c3        1 MOL     -0.065368
     81 C28        -7.2930    5.1930    2.4290 c3        1 MOL     -0.378185
     82 C29        -7.7970    6.2330    1.5650 c         1 MOL      0.790018
     83 N8         -9.0630    6.4500    1.4380 n         1 MOL     -0.868586
     84 O15        -7.0410    6.9420    0.9680 o         1 MOL     -0.587373
     85 H33        -7.6300    3.4240   -0.6550 hn        1 MOL      0.277486
     86 H34        -5.8680    4.8010    0.0220 h1        1 MOL      0.084569
     87 H35        -5.1400    5.2280    2.1960 hc        1 MOL      0.054744
     88 H36        -5.8010    3.7770    2.8660 hc        1 MOL      0.054744
     89 H37        -7.0640    5.7540    3.3340 hc        1 MOL      0.105415
     90 H38        -8.0330    4.4170    2.6150 hc        1 MOL      0.105415
     91 H39        -9.7610    6.0460    2.0480 hn        1 MOL      0.368896
     92 H40        -9.4530    7.1400    0.8140 hn        1 MOL      0.368896
     93 N9         -3.5330    3.7900    0.2590 n         1 MOL     -0.733315
     94 C30        -2.2190    3.1300    0.1750 c3        1 MOL      0.005922
     95 C31        -1.7240    2.8110   -1.2750 c         1 MOL      0.898682
     96 O16        -2.2810    3.3650   -2.2150 o         1 MOL     -0.582105
     97 C32        -1.1320    3.9500    0.9450 c3        1 MOL      0.278617
     98 C33        -1.4280    4.0030    2.4170 c3        1 MOL     -0.304127
     99 C34        -0.7750    5.3300    0.3300 c3        1 MOL     -0.304127
    100 H41        -3.4490    4.7980    0.3800 hn        1 MOL      0.332391
    101 H42        -2.3050    2.1880    0.7320 h1        1 MOL      0.063350
    102 H43        -0.2370    3.3430    0.7660 hc        1 MOL      0.003267
    103 H44        -1.7630    3.0240    2.7410 hc        1 MOL      0.078664
    104 H45        -0.5050    4.2050    2.9670 hc        1 MOL      0.078664
    105 H46        -2.1580    4.7800    2.6380 hc        1 MOL      0.078664
    106 H47         0.1090    5.8320    0.7000 hc        1 MOL      0.078664
    107 H48        -0.7090    5.2040   -0.7520 hc        1 MOL      0.078664
    108 H49        -1.5670    6.0750    0.4150 hc        1 MOL      0.078664
    109 N10        -0.7290    1.8880   -1.4120 n         1 MOL     -1.020402
    110 C35        -0.3450    1.3070   -2.6900 c3        1 MOL      0.500559
    111 C36         1.1500    1.5440   -3.0890 c         1 MOL      0.440039
    112 O17         1.6910    0.8660   -3.9590 o         1 MOL     -0.519298
    113 C37        -0.7590   -0.1460   -2.8720 c3        1 MOL     -0.300421
    114 C38        -0.2180   -1.1350   -1.8370 c         1 MOL      0.502161
    115 N11        -1.0320   -1.6240   -0.8860 n         1 MOL     -0.408527
    116 O18         0.8960   -1.5870   -1.9860 o         1 MOL     -0.516501
    117 H50        -0.1620    1.6050   -0.6310 hn        1 MOL      0.414540
    118 H51        -0.8730    1.8370   -3.4780 h1        1 MOL      0.007706
    119 H52        -0.4970   -0.5680   -3.8460 hc        1 MOL      0.103979
    120 H53        -1.8390   -0.2560   -2.8330 hc        1 MOL      0.103979
    121 H54        -1.9820   -1.3170   -0.7720 hn        1 MOL      0.290467
    122 H55        -0.5940   -2.2620   -0.2390 hn        1 MOL      0.290467
    123 N12         1.8000    2.4770   -2.4290 n         1 MOL     -0.485827
    124 C39         3.1200    3.0630   -2.7720 c3        1 MOL      0.210919
    125 C40         3.8050    3.4640   -1.4880 c         1 MOL      0.788869
    126 O19         3.1250    3.7730   -0.5500 o         1 MOL     -0.527118
    127 C41         2.9070    4.3070   -3.7030 c3        1 MOL     -0.234520
    128 C42         1.9610    5.3710   -3.1480 ca        1 MOL      0.221205
    129 C43         2.3800    6.2540   -2.1320 ca        1 MOL     -0.215350
    130 C44         0.7060    5.6130   -3.7170 ca        1 MOL     -0.215350
    131 C45         1.5530    7.2300   -1.6380 ca        1 MOL     -0.229120
    132 C46        -0.1540    6.5560   -3.2010 ca        1 MOL     -0.229120
    133 C47         0.2540    7.3250   -2.1370 ca        1 MOL      0.239778
    134 O20        -0.6450    8.2420   -1.5670 oh        1 MOL     -0.484593
    135 H56         1.4020    2.9640   -1.6350 hn        1 MOL      0.225918
    136 H57         3.7650    2.2640   -3.1460 h1        1 MOL      0.051124
    137 H58         2.5810    3.8170   -4.6220 hc        1 MOL      0.039677
    138 H59         3.8760    4.7970   -3.8100 hc        1 MOL      0.039677
    139 H60         3.3530    6.1500   -1.6730 ha        1 MOL      0.146515
    140 H61         0.4060    4.9590   -4.5300 ha        1 MOL      0.146515
    141 H62         1.9650    7.9220   -0.9310 ha        1 MOL      0.163981
    142 H63        -1.1650    6.5990   -3.5910 ha        1 MOL      0.163981
    143 H64        -1.3580    8.3480   -2.1970 ho        1 MOL      0.339333
    144 N13         5.1620    3.4390   -1.5410 n         1 MOL     -0.854614
    145 C48         6.0540    3.6080   -0.3660 c3        1 MOL      0.224509
    146 C49         6.8390    2.3310   -0.1380 c         1 MOL      0.513137
    147 O21         7.8900    2.1980   -0.6930 o         1 MOL     -0.519503
    148 C50         6.8870    4.9200   -0.5130 c3        1 MOL      0.177068
    149 C51         7.7930    5.2130    0.7170 c3        1 MOL     -0.323437
    150 C52         7.0480    5.9180    1.8750 c         1 MOL      0.712684
    151 O22         5.8240    5.6870    2.1420 o         1 MOL     -0.718420
    152 O23         7.6700    6.7480    2.6270 o         1 MOL     -0.718420
    153 H65         5.6480    3.0770   -2.3500 hn        1 MOL      0.349819
    154 H66         5.4300    3.7190    0.5180 h1        1 MOL      0.033436
    155 H67         6.1630    5.7320   -0.5050 hc        1 MOL     -0.027419
    156 H68         7.4930    4.9630   -1.4210 hc        1 MOL     -0.027419
    157 H69         8.6380    5.8240    0.3890 hc        1 MOL      0.032080
    158 H70         8.3100    4.2770    0.9220 hc        1 MOL      0.032080
    159 N14         6.3300    1.2990    0.6000 n         1 MOL     -0.513747
    160 C53         7.0060   -0.0300    0.4660 c3        1 MOL     -0.101810
    161 C54         7.1270   -0.5050   -1.0360 c         1 MOL      0.365159
    162 O24         7.9160   -1.3930   -1.3640 o         1 MOL     -0.543679
    163 C55         6.2820   -1.1280    1.3190 c3        1 MOL      0.169915
    164 C56         6.6430   -1.0740    2.8200 c3        1 MOL     -0.263619
    165 C57         5.7590   -2.0670    3.6080 c         1 MOL      0.712751
    166 O25         4.5290   -2.0070    3.5520 o         1 MOL     -0.721270
    167 O26         6.2450   -2.9040    4.3910 o         1 MOL     -0.721270
    168 H71         5.4040    1.3380    1.0190 hn        1 MOL      0.337470
    169 H72         8.0440    0.0160    0.8080 h1        1 MOL      0.136841
    170 H73         6.3840   -2.1390    0.9010 hc        1 MOL      0.022868
    171 H74         5.1970   -1.0240    1.2310 hc        1 MOL      0.022868
    172 H75         6.4910   -0.0550    3.1770 hc        1 MOL      0.056657
    173 H76         7.7050   -1.3270    2.8160 hc        1 MOL      0.056657
    174 N15         6.4290    0.1400   -2.0130 n         1 MOL      0.076682
    175 C58         6.5410   -0.0020   -3.4690 c3        1 MOL     -0.253295
    176 H77         7.5940    0.0080   -3.7540 h1        1 MOL      0.089833
    177 H78         6.0910   -0.9460   -3.7780 h1        1 MOL      0.089833
    178 H79         6.0240    0.8250   -3.9560 h1        1 MOL      0.089833
    179 H80         5.7960    0.8420   -1.6730 hn        1 MOL      0.050032
    180 Ca1         2.4180   -2.6370    4.9440 Ca        1 MOL      1.731445
    181 O27         0.0340   -1.3800    4.2450 oh        1 MOL     -0.825786
    182 H81        -0.2800   -1.7730    3.4360 ho        1 MOL      0.401364
    183 H82        -0.7550   -1.1540    4.7320 ho        1 MOL      0.401364
    184 O28         3.4370   -3.0370    7.3260 oh        1 MOL     -0.825786
    185 H83         4.0070   -3.7230    7.6860 ho        1 MOL      0.401364
    186 H84         2.9950   -2.6700    8.0930 ho        1 MOL      0.401364
    187 O29         0.7810   -1.9320    7.1510 oh        1 MOL     -0.825786
    188 H85        -0.1300   -1.7290    6.9240 ho        1 MOL      0.401364
    189 H86         0.7360   -2.1960    8.0760 ho        1 MOL      0.401364
    190 O30         2.3600   -0.7500    2.3510 oh        1 MOL     -0.825786
    191 H87         3.1320   -1.2830    2.5370 ho        1 MOL      0.401364
    192 H88         1.6750   -1.3820    2.1220 ho        1 MOL      0.401364
    193 O31         3.2950   -0.0850    5.2340 oh        1 MOL     -0.825786
    194 H89         3.5200    0.5490    4.5530 ho        1 MOL      0.401364
    195 H90         3.6830    0.2840    6.0370 ho        1 MOL      0.401364
    196 O32         4.2570   -4.5800    4.8020 oh        1 MOL     -0.825786
    197 H91         4.8250   -5.2780    5.1330 ho        1 MOL      0.401364
    198 H92         4.8450   -4.0140    4.3160 ho        1 MOL      0.401364
    199 O33         0.5750   -4.6640    5.5050 oh        1 MOL     -0.825786
    200 H93         0.3900   -4.8030    6.4300 ho        1 MOL      0.401364
    201 H94        -0.1980   -5.0000    5.0460 ho        1 MOL      0.401364
@<TRIPOS>BOND
     1    1    2 1   
     2    1    4 1   
     3    1    5 1   
     4    1    6 1   
     5    2    3 2   
     6    2    7 1   
     7    7    8 1   
     8    7   15 1   
     9    8    9 1   
    10    8   11 1   
    11    8   16 1   
    12    9   10 2   
    13    9   19 1   
    14   11   12 1   
    15   11   17 1   
    16   11   18 1   
    17   12   13 1   
    18   12   14 1   
    19   19   20 1   
    20   19   27 1   
    21   20   21 1   
    22   20   23 1   
    23   20   28 1   
    24   21   22 2   
    25   21   38 1   
    26   23   24 1   
    27   23   25 1   
    28   23   29 1   
    29   24   26 1   
    30   24   30 1   
    31   24   31 1   
    32   25   32 1   
    33   25   33 1   
    34   25   34 1   
    35   26   35 1   
    36   26   36 1   
    37   26   37 1   
    38   38   39 1   
    39   38   46 1   
    40   39   40 1   
    41   39   42 1   
    42   39   47 1   
    43   40   41 2   
    44   40   50 1   
    45   42   43 1   
    46   42   48 1   
    47   42   49 1   
    48   43   44 1   
    49   43   45 1   
    50   50   51 1   
    51   50   54 1   
    52   51   52 1   
    53   51   55 1   
    54   51   56 1   
    55   52   53 2   
    56   52   57 1   
    57   57   58 1   
    58   57   65 1   
    59   58   59 1   
    60   58   61 1   
    61   58   66 1   
    62   59   60 2   
    63   59   69 1   
    64   61   62 1   
    65   61   67 1   
    66   61   68 1   
    67   62   63 1   
    68   62   64 1   
    69   69   70 1   
    70   69   73 1   
    71   70   71 1   
    72   70   74 1   
    73   70   75 1   
    74   71   72 2   
    75   71   76 1   
    76   76   77 1   
    77   76   85 1   
    78   77   78 1   
    79   77   80 1   
    80   77   86 1   
    81   78   79 2   
    82   78   93 1   
    83   80   81 1   
    84   80   87 1   
    85   80   88 1   
    86   81   82 1   
    87   81   89 1   
    88   81   90 1   
    89   82   83 1   
    90   82   84 2   
    91   83   91 1   
    92   83   92 1   
    93   93   94 1   
    94   93  100 1   
    95   94   95 1   
    96   94   97 1   
    97   94  101 1   
    98   95   96 2   
    99   95  109 1   
   100   97   98 1   
   101   97   99 1   
   102   97  102 1   
   103   98  103 1   
   104   98  104 1   
   105   98  105 1   
   106   99  106 1   
   107   99  107 1   
   108   99  108 1   
   109  109  110 1   
   110  109  117 1   
   111  110  111 1   
   112  110  113 1   
   113  110  118 1   
   114  111  112 2   
   115  111  123 1   
   116  113  114 1   
   117  113  119 1   
   118  113  120 1   
   119  114  115 1   
   120  114  116 2   
   121  115  121 1   
   122  115  122 1   
   123  123  124 1   
   124  123  135 1   
   125  124  125 1   
   126  124  127 1   
   127  124  136 1   
   128  125  126 2   
   129  125  144 1   
   130  127  128 1   
   131  127  137 1   
   132  127  138 1   
   133  128  129 ar  
   134  128  130 ar  
   135  129  131 ar  
   136  129  139 1   
   137  130  132 ar  
   138  130  140 1   
   139  131  133 ar  
   140  131  141 1   
   141  132  133 ar  
   142  132  142 1   
   143  133  134 1   
   144  134  143 1   
   145  144  145 1   
   146  144  153 1   
   147  145  146 1   
   148  145  148 1   
   149  145  154 1   
   150  146  147 2   
   151  146  159 1   
   152  148  149 1   
   153  148  155 1   
   154  148  156 1   
   155  149  150 1   
   156  149  157 1   
   157  149  158 1   
   158  150  151 1   
   159  150  152 1   
   160  159  160 1   
   161  159  168 1   
   162  160  161 1   
   163  160  163 1   
   164  160  169 1   
   165  161  162 2   
   166  161  174 1   
   167  163  164 1   
   168  163  170 1   
   169  163  171 1   
   170  164  165 1   
   171  164  172 1   
   172  164  173 1   
   173  165  166 1   
   174  165  167 1   
   175  174  175 1   
   176  174  179 1   
   177  175  176 1   
   178  175  177 1   
   179  175  178 1   
   180  181  182 1   
   181  181  183 1   
   182  184  185 1   
   183  184  186 1   
   184  187  188 1   
   185  187  189 1   
   186  190  191 1   
   187  190  192 1   
   188  193  194 1   
   189  193  195 1   
   190  196  197 1   
   191  196  198 1   
   192  199  200 1   
   193  199  201 1   
@<TRIPOS>SUBSTRUCTURE
     1 MOL         1 TEMP              0 ****  ****    0 ROOT
