@<TRIPOS>MOLECULE
MOL
  184   179     1     0     0
SMALL
resp


@<TRIPOS>ATOM
      1 C1          0.5960    5.7780   -1.5890 c3        1 MOL     -0.439819
      2 C2          2.0400    5.9500   -1.0330 c         1 MOL      0.712247
      3 O1          2.1550    6.3720    0.1480 o         1 MOL     -0.618515
      4 H1          0.1830    4.8330   -1.2390 hc        1 MOL      0.101783
      5 H2         -0.0300    6.6000   -1.2400 hc        1 MOL      0.101783
      6 H3          0.6220    5.7800   -2.6790 hc        1 MOL      0.101783
      7 N1          3.0660    5.7120   -1.8300 n         1 MOL     -0.447602
      8 C3          4.4820    5.9880   -1.4670 c3        1 MOL     -0.024637
      9 C4          4.9850    4.9240   -0.4820 c         1 MOL      0.657129
     10 O2          4.9600    3.7600   -0.8080 o         1 MOL     -0.522832
     11 C5          5.3080    6.0580   -2.8060 c3        1 MOL     -0.250602
     12 C6          6.7170    6.4600   -2.4370 c         1 MOL      0.715976
     13 O3          7.6570    5.6260   -2.5830 o         1 MOL     -0.730548
     14 O4          6.9770    7.5960   -1.9680 o         1 MOL     -0.730548
     15 H4          2.9020    5.3250   -2.7490 hn        1 MOL      0.286123
     16 H5          4.5500    6.9380   -0.9320 h1        1 MOL      0.053518
     17 H6          4.8780    6.7460   -3.5350 hc        1 MOL      0.048338
     18 H7          5.3040    5.0320   -3.1600 hc        1 MOL      0.048338
     19 N2          5.4230    5.2590    0.7160 n         1 MOL     -0.541687
     20 C7          5.9010    4.3340    1.7290 c3        1 MOL      0.286292
     21 C8          4.9030    3.2250    2.1490 c         1 MOL      0.404578
     22 O5          3.6210    3.4190    1.9840 o         1 MOL     -0.537610
     23 C9          6.3230    5.0750    2.9740 c3        1 MOL     -0.398503
     24 H8          5.4820    6.2300    0.9940 hn        1 MOL      0.318438
     25 H9          6.8410    3.8880    1.3920 h1        1 MOL      0.053132
     26 H10         6.6810    4.4070    3.7540 hc        1 MOL      0.103849
     27 H11         7.1250    5.7900    2.7950 hc        1 MOL      0.103849
     28 H12         5.4500    5.5920    3.3740 hc        1 MOL      0.103849
     29 N3          5.2060    2.0530    2.6960 n         1 MOL     -0.350429
     30 C10         6.4920    1.3770    2.5970 c3        1 MOL      0.208890
     31 C11         6.7240    0.6220    1.2650 c         1 MOL      0.350394
     32 O6          5.8580    0.6060    0.4180 o         1 MOL     -0.404070
     33 C12         6.7310    0.5030    3.8550 c3        1 MOL     -0.262953
     34 C13         5.6890   -0.5790    4.3060 c         1 MOL      0.739731
     35 O7          4.7440   -0.8680    3.5420 o         1 MOL     -0.690088
     36 O8          5.7510   -0.9810    5.4770 o         1 MOL     -0.690088
     37 H13         4.3840    1.5070    2.9340 hn        1 MOL      0.216427
     38 H14         7.2860    2.1170    2.7360 h1        1 MOL      0.011071
     39 H15         6.9010    1.1980    4.6720 hc        1 MOL      0.044326
     40 H16         7.6320   -0.0790    3.6750 hc        1 MOL      0.044326
     41 N4          7.8950   -0.0920    1.1290 n         1 MOL     -0.547749
     42 C14         8.1810   -1.0090   -0.0320 c3        1 MOL      0.338155
     43 C15         8.0250   -2.5420    0.2950 c         1 MOL      0.505458
     44 O9          8.1270   -2.8880    1.4520 o         1 MOL     -0.528567
     45 H17         8.4530   -0.0640    1.9700 hn        1 MOL      0.291557
     46 H18         9.2010   -0.7870   -0.3470 h1        1 MOL      0.002121
     47 H19         7.5480   -0.7840   -0.8810 h1        1 MOL      0.002121
     48 N5          7.9300   -3.5270   -0.5860 n         1 MOL     -0.531623
     49 C16         7.7880   -3.3940   -2.0250 c3        1 MOL     -0.012757
     50 C17         6.5200   -2.6510   -2.4830 c         1 MOL      0.531938
     51 O10         6.6270   -1.6520   -3.1910 o         1 MOL     -0.491762
     52 C18         9.0550   -2.8930   -2.7490 c3        1 MOL     -0.277423
     53 C19        10.1840   -3.9100   -2.8800 c         1 MOL      0.683602
     54 N6         10.9330   -3.9150   -3.9720 n         1 MOL     -0.809442
     55 O11        10.4000   -4.8610   -2.1140 o         1 MOL     -0.555969
     56 H20         8.0190   -4.4520   -0.2030 hn        1 MOL      0.337178
     57 H21         7.5540   -4.4180   -2.3220 h1        1 MOL      0.094322
     58 H22         9.3520   -1.8670   -2.5240 hc        1 MOL      0.096943
     59 H23         8.7480   -2.6780   -3.7650 hc        1 MOL      0.096943
     60 H24        10.8380   -3.2090   -4.6880 hn        1 MOL      0.365153
     61 H25        11.5040   -4.7350   -4.0980 hn        1 MOL      0.365153
     62 N7          5.3790   -3.1290   -1.9960 n         1 MOL     -0.458728
     63 C20         4.0990   -2.4700   -2.0710 c3        1 MOL     -0.026384
     64 C21         2.9840   -3.6160   -2.0720 c         1 MOL      0.445034
     65 O12         2.9660   -4.5450   -2.9600 o         1 MOL     -0.530633
     66 H26         5.5500   -3.9370   -1.4260 hn        1 MOL      0.306813
     67 H27         4.0350   -1.8750   -2.9750 h1        1 MOL      0.106742
     68 H28         4.0330   -1.7400   -1.2520 h1        1 MOL      0.106742
     69 N8          2.0410   -3.5420   -1.1450 n         1 MOL     -0.273532
     70 C22         0.7580   -4.2380   -1.0570 c3        1 MOL     -0.077472
     71 C23        -0.4230   -3.4240   -0.7300 c         1 MOL      0.542399
     72 O13        -0.3250   -2.3660   -0.0660 o         1 MOL     -0.571414
     73 C24         0.8840   -5.4400   -0.0710 c3        1 MOL      0.434516
     74 C25         1.9400   -6.3920   -0.5220 c3        1 MOL     -0.402753
     75 O14         1.3210   -4.9560    1.1760 oh        1 MOL     -0.663720
     76 H29         2.1820   -2.7250   -0.5600 hn        1 MOL      0.238731
     77 H30         0.5480   -4.6150   -2.0560 h1        1 MOL      0.083051
     78 H31        -0.0290   -6.0060    0.0590 h1        1 MOL     -0.007213
     79 H32         0.5910   -5.0870    1.7840 ho        1 MOL      0.466530
     80 H33         1.6460   -7.3980   -0.2190 hc        1 MOL      0.105470
     81 H34         1.9020   -6.4440   -1.6140 hc        1 MOL      0.105470
     82 H35         2.9360   -6.1930   -0.1330 hc        1 MOL      0.105470
     83 N9         -1.6170   -3.8490   -1.1030 n         1 MOL     -0.375788
     84 C26        -2.8960   -3.2140   -0.8910 c3        1 MOL     -0.413788
     85 C27        -3.4080   -3.5500    0.5520 c         1 MOL      0.681122
     86 O15        -3.4060   -4.7040    1.0170 o         1 MOL     -0.553422
     87 C28        -3.8630   -3.6880   -1.9800 c3        1 MOL      0.356768
     88 C29        -5.3140   -3.1550   -1.8420 c3        1 MOL      0.019338
     89 C30        -3.2320   -3.3610   -3.4090 c3        1 MOL     -0.456082
     90 C31        -6.2460   -3.7040   -2.8660 c3        1 MOL     -0.178140
     91 H36        -1.6950   -4.7710   -1.5140 hn        1 MOL      0.277526
     92 H37        -2.5950   -2.1750   -0.9820 h1        1 MOL      0.262626
     93 H38        -3.8520   -4.7800   -1.9180 hc        1 MOL     -0.029430
     94 H39        -5.3680   -2.0760   -1.9790 hc        1 MOL      0.012804
     95 H40        -5.6130   -3.5000   -0.8580 hc        1 MOL      0.012804
     96 H41        -2.3910   -4.0470   -3.5200 hc        1 MOL      0.106668
     97 H42        -3.9160   -3.2610   -4.2470 hc        1 MOL      0.106668
     98 H43        -2.7840   -2.3750   -3.2710 hc        1 MOL      0.106668
     99 H44        -7.2730   -3.5610   -2.5470 hc        1 MOL      0.036947
    100 H45        -6.0760   -3.2440   -3.8450 hc        1 MOL      0.036947
    101 H46        -6.2220   -4.7890   -3.0140 hc        1 MOL      0.036947
    102 N10        -3.8310   -2.4390    1.1670 n         1 MOL     -0.479680
    103 C32        -4.5810   -2.2500    2.4250 c3        1 MOL      0.357801
    104 C33        -5.9190   -1.5290    2.2650 c         1 MOL      0.244647
    105 O16        -6.6780   -1.5080    3.2690 o         1 MOL     -0.528262
    106 C34        -3.7070   -1.6040    3.5140 c3        1 MOL     -0.237825
    107 C35        -2.4170   -2.2960    3.7920 c         1 MOL      0.647411
    108 O17        -1.2560   -1.9610    3.3770 o         1 MOL     -0.662658
    109 O18        -2.5190   -3.3150    4.5300 o         1 MOL     -0.662658
    110 H47        -3.6220   -1.5340    0.7640 hn        1 MOL      0.057258
    111 H48        -4.7130   -3.1980    2.9310 h1        1 MOL      0.047270
    112 H49        -4.3110   -1.6030    4.4170 hc        1 MOL      0.060319
    113 H50        -3.5420   -0.5440    3.2730 hc        1 MOL      0.060319
    114 N11        -6.1900   -0.8940    1.1050 n         1 MOL     -0.356712
    115 C36        -7.4970   -0.2070    0.9660 c3        1 MOL      0.600976
    116 C37        -7.3490    1.2060    0.3540 c         1 MOL     -0.052770
    117 O19        -7.7900    1.4500   -0.8000 o         1 MOL     -0.411538
    118 C38        -8.3830   -1.1050    0.1020 c3        1 MOL     -0.510145
    119 C39        -9.7900   -0.5720   -0.0450 ca        1 MOL      0.220262
    120 C40       -10.6780   -1.2660   -0.9050 ca        1 MOL     -0.176946
    121 C41       -10.3430    0.3590    0.9040 ca        1 MOL     -0.176946
    122 C42       -12.0700   -1.0100   -0.8870 ca        1 MOL     -0.133646
    123 C43       -11.6970    0.7100    0.7860 ca        1 MOL     -0.133646
    124 C44       -12.5290   -0.0070   -0.1110 ca        1 MOL     -0.107231
    125 H51        -5.4090   -0.8280    0.4550 hn        1 MOL      0.215925
    126 H52        -7.9160   -0.0410    1.9490 h1        1 MOL     -0.024533
    127 H53        -8.4040   -2.1330    0.4620 hc        1 MOL      0.148706
    128 H54        -8.0970   -1.2420   -0.9410 hc        1 MOL      0.148706
    129 H55       -10.3520   -2.0640   -1.5610 ha        1 MOL      0.122210
    130 H56        -9.7820    1.0080    1.5580 ha        1 MOL      0.122210
    131 H57       -12.7860   -1.5820   -1.4510 ha        1 MOL      0.112579
    132 H58       -12.0740    1.4890    1.4430 ha        1 MOL      0.112579
    133 H59       -13.5900    0.1700   -0.1200 ha        1 MOL      0.086038
    134 N12        -6.6940    2.1790    0.9570 n         1 MOL      0.171275
    135 C45        -6.4300    3.5300    0.4920 c3        1 MOL     -0.069871
    136 C46        -5.8850    3.6240   -0.9210 c         1 MOL      0.323190
    137 O20        -5.9990    4.6210   -1.5900 o         1 MOL     -0.465765
    138 C47        -5.2990    4.0080    1.4350 c3        1 MOL      0.155109
    139 C48        -5.4090    3.2740    2.7110 c3        1 MOL     -0.185706
    140 C49        -6.1790    2.0550    2.3160 c3        1 MOL     -0.044559
    141 H60        -7.2410    4.2470    0.6000 h1        1 MOL      0.065304
    142 H61        -4.3800    3.6690    0.9540 hc        1 MOL     -0.013237
    143 H62        -5.2930    5.0780    1.6450 hc        1 MOL     -0.013237
    144 H63        -4.4400    2.9940    3.1130 hc        1 MOL      0.056578
    145 H64        -6.0410    3.8740    3.3700 hc        1 MOL      0.056578
    146 H65        -5.5580    1.1610    2.2850 h1        1 MOL      0.049446
    147 H66        -7.0130    1.9840    3.0190 h1        1 MOL      0.049446
    148 N13        -5.1740    2.5290   -1.3420 n         1 MOL     -0.173907
    149 C50        -4.7410    2.4670   -2.7240 c3        1 MOL     -0.196954
    150 C51        -5.8410    2.2850   -3.7770 c         1 MOL      0.542312
    151 O21        -6.0780    3.0290   -4.7050 o         1 MOL     -0.537120
    152 C52        -3.7880    1.1740   -2.9430 c3        1 MOL      0.006995
    153 C53        -2.6170    1.0710   -1.9910 c3        1 MOL     -0.170489
    154 C54        -2.7900    0.5330   -0.6260 c         1 MOL      0.437125
    155 O22        -1.7400    0.3370    0.0030 o         1 MOL     -0.579294
    156 O23        -3.9270    0.2840   -0.0920 o         1 MOL     -0.579294
    157 H67        -5.0270    1.7600   -0.7130 hn        1 MOL      0.348600
    158 H68        -4.2810    3.3970   -3.0780 h1        1 MOL      0.102837
    159 H69        -3.3990    1.1120   -3.9610 hc        1 MOL      0.010377
    160 H70        -4.3900    0.2800   -2.7560 hc        1 MOL      0.010377
    161 H71        -2.1600    2.0590   -1.9630 hc        1 MOL      0.079601
    162 H72        -1.8110    0.4790   -2.4090 hc        1 MOL      0.079601
    163 N14        -6.6890    1.2860   -3.4730 n         1 MOL     -0.221242
    164 C55        -7.9660    1.0460   -4.2180 c3        1 MOL     -0.315251
    165 H73        -8.5240    0.2450   -3.7320 h1        1 MOL      0.116045
    166 H74        -8.5640    1.9570   -4.2170 h1        1 MOL      0.116045
    167 H75        -7.7400    0.7600   -5.2450 h1        1 MOL      0.116045
    168 H76        -6.5850    0.8040   -2.5940 hn        1 MOL      0.212764
    169 Ca1         0.0600   -0.4600    1.6330 Ca        1 MOL      1.712281
    170 O24        -1.1170    1.2720    3.1490 oh        1 MOL     -0.856799
    171 H77        -0.7480    2.1340    3.3400 ho        1 MOL      0.410868
    172 H78        -2.0090    1.3250    3.5060 ho        1 MOL      0.410868
    173 O25         2.1500   -0.7760    0.2960 oh        1 MOL     -0.856799
    174 H79         2.8750   -1.2530    0.6750 ho        1 MOL      0.410868
    175 H80         2.5450    0.0130   -0.0840 ho        1 MOL      0.410868
    176 O26         1.1110    2.0980    1.4620 oh        1 MOL     -0.856799
    177 H81         1.8770    2.6210    1.2470 ho        1 MOL      0.410868
    178 H82         0.7320    2.5260    2.2330 ho        1 MOL      0.410868
    179 O27         1.3480   -2.6830    2.5160 oh        1 MOL     -0.856799
    180 H83         2.2360   -2.3510    2.5330 ho        1 MOL      0.410868
    181 H84         1.4040   -3.5040    2.0160 ho        1 MOL      0.410868
    182 O28         2.1830    0.1030    3.5160 oh        1 MOL     -0.856799
    183 H85         3.0110   -0.2010    3.8890 ho        1 MOL      0.410868
    184 H86         2.0420    0.9610    3.9120 ho        1 MOL      0.410868
@<TRIPOS>BOND
     1    1    2 1   
     2    1    4 1   
     3    1    5 1   
     4    1    6 1   
     5    2    3 2   
     6    2    7 1   
     7    7    8 1   
     8    7   15 1   
     9    8    9 1   
    10    8   11 1   
    11    8   16 1   
    12    9   10 2   
    13    9   19 1   
    14   11   12 1   
    15   11   17 1   
    16   11   18 1   
    17   12   13 1   
    18   12   14 1   
    19   19   20 1   
    20   19   24 1   
    21   20   21 1   
    22   20   23 1   
    23   20   25 1   
    24   21   22 2   
    25   21   29 1   
    26   23   26 1   
    27   23   27 1   
    28   23   28 1   
    29   29   30 1   
    30   29   37 1   
    31   30   31 1   
    32   30   33 1   
    33   30   38 1   
    34   31   32 2   
    35   31   41 1   
    36   33   34 1   
    37   33   39 1   
    38   33   40 1   
    39   34   35 1   
    40   34   36 1   
    41   41   42 1   
    42   41   45 1   
    43   42   43 1   
    44   42   46 1   
    45   42   47 1   
    46   43   44 2   
    47   43   48 1   
    48   48   49 1   
    49   48   56 1   
    50   49   50 1   
    51   49   52 1   
    52   49   57 1   
    53   50   51 2   
    54   50   62 1   
    55   52   53 1   
    56   52   58 1   
    57   52   59 1   
    58   53   54 1   
    59   53   55 2   
    60   54   60 1   
    61   54   61 1   
    62   62   63 1   
    63   62   66 1   
    64   63   64 1   
    65   63   67 1   
    66   63   68 1   
    67   64   65 2   
    68   64   69 1   
    69   69   70 1   
    70   69   76 1   
    71   70   71 1   
    72   70   73 1   
    73   70   77 1   
    74   71   72 2   
    75   71   83 1   
    76   73   74 1   
    77   73   75 1   
    78   73   78 1   
    79   74   80 1   
    80   74   81 1   
    81   74   82 1   
    82   75   79 1   
    83   83   84 1   
    84   83   91 1   
    85   84   85 1   
    86   84   87 1   
    87   84   92 1   
    88   85   86 2   
    89   85  102 1   
    90   87   88 1   
    91   87   89 1   
    92   87   93 1   
    93   88   90 1   
    94   88   94 1   
    95   88   95 1   
    96   89   96 1   
    97   89   97 1   
    98   89   98 1   
    99   90   99 1   
   100   90  100 1   
   101   90  101 1   
   102  102  103 1   
   103  102  110 1   
   104  103  104 1   
   105  103  106 1   
   106  103  111 1   
   107  104  105 2   
   108  104  114 1   
   109  106  107 1   
   110  106  112 1   
   111  106  113 1   
   112  107  108 1   
   113  107  109 1   
   114  114  115 1   
   115  114  125 1   
   116  115  116 1   
   117  115  118 1   
   118  115  126 1   
   119  116  117 2   
   120  116  134 1   
   121  118  119 1   
   122  118  127 1   
   123  118  128 1   
   124  119  120 ar  
   125  119  121 ar  
   126  120  122 ar  
   127  120  129 1   
   128  121  123 ar  
   129  121  130 1   
   130  122  124 ar  
   131  122  131 1   
   132  123  124 ar  
   133  123  132 1   
   134  124  133 1   
   135  134  135 1   
   136  134  140 1   
   137  135  136 1   
   138  135  138 1   
   139  135  141 1   
   140  136  137 2   
   141  136  148 1   
   142  138  139 1   
   143  138  142 1   
   144  138  143 1   
   145  139  140 1   
   146  139  144 1   
   147  139  145 1   
   148  140  146 1   
   149  140  147 1   
   150  148  149 1   
   151  148  157 1   
   152  149  150 1   
   153  149  152 1   
   154  149  158 1   
   155  150  151 2   
   156  150  163 1   
   157  152  153 1   
   158  152  159 1   
   159  152  160 1   
   160  153  154 1   
   161  153  161 1   
   162  153  162 1   
   163  154  155 1   
   164  154  156 1   
   165  163  164 1   
   166  163  168 1   
   167  164  165 1   
   168  164  166 1   
   169  164  167 1   
   170  170  171 1   
   171  170  172 1   
   172  173  174 1   
   173  173  175 1   
   174  176  177 1   
   175  176  178 1   
   176  179  180 1   
   177  179  181 1   
   178  182  183 1   
   179  182  184 1   
@<TRIPOS>SUBSTRUCTURE
     1 MOL         1 TEMP              0 ****  ****    0 ROOT
