@<TRIPOS>MOLECULE
MOL
  182   178     1     0     0
SMALL
resp


@<TRIPOS>ATOM
      1 C1          0.7060   -3.9890    6.6200 c3        1 MOL     -0.398468
      2 C2          0.7260   -3.5450    5.1800 c         1 MOL      0.786776
      3 O1         -0.3290   -3.4510    4.5160 o         1 MOL     -0.637956
      4 H1         -0.2450   -4.4760    6.8370 hc        1 MOL      0.106038
      5 H2          1.5210   -4.6910    6.7960 hc        1 MOL      0.106038
      6 H3          0.8260   -3.1220    7.2710 hc        1 MOL      0.106038
      7 N1          1.8880   -3.2120    4.7300 n         1 MOL     -0.611561
      8 C3          2.1460   -2.9860    3.3120 c3        1 MOL     -0.070891
      9 C4          1.8160   -4.2350    2.4740 c         1 MOL      0.682010
     10 O2          2.0920   -5.3340    2.8450 o         1 MOL     -0.553082
     11 C5          3.5600   -2.4200    3.0990 c3        1 MOL     -0.049226
     12 C6          3.6780   -1.6090    1.7860 c         1 MOL      0.483284
     13 O3          4.7010   -0.9150    1.6440 o         1 MOL     -0.660294
     14 O4          2.8440   -1.6500    0.8800 o         1 MOL     -0.660294
     15 H4          2.6740   -3.1200    5.3680 hn        1 MOL      0.333604
     16 H5          1.4390   -2.2210    2.9980 h1        1 MOL      0.060373
     17 H6          4.2970   -3.2340    3.0820 hc        1 MOL      0.069130
     18 H7          3.9040   -1.7950    3.9220 hc        1 MOL      0.069130
     19 N2          1.3100   -4.0480    1.2530 n         1 MOL     -0.400617
     20 C7          1.1800   -5.0360    0.1460 c3        1 MOL     -0.040353
     21 C8          2.3560   -5.2360   -0.8170 c         1 MOL      0.530806
     22 O5          2.4550   -6.2820   -1.4350 o         1 MOL     -0.533034
     23 C9         -0.1690   -4.8280   -0.6520 c3        1 MOL     -0.011758
     24 C10        -0.2030   -3.5340   -1.5620 c3        1 MOL     -0.027293
     25 C11        -1.4970   -3.3620   -2.3830 c3        1 MOL      0.190001
     26 C12        -1.6070   -4.2070   -3.5980 c3        1 MOL      0.008266
     27 N3         -2.8330   -3.8680   -4.3260 n4        1 MOL     -0.214572
     28 H8          1.2910   -3.0740    0.9930 hn        1 MOL      0.159820
     29 H9          1.0090   -6.0250    0.5530 h1        1 MOL      0.112026
     30 H10        -1.0260   -4.9280    0.0200 hc        1 MOL      0.026273
     31 H11        -0.3430   -5.7570   -1.1790 hc        1 MOL      0.026273
     32 H12         0.7190   -3.4810   -2.1460 hc        1 MOL     -0.002954
     33 H13        -0.2380   -2.7340   -0.8210 hc        1 MOL     -0.002954
     34 H14        -1.7910   -2.3280   -2.5860 hc        1 MOL     -0.038823
     35 H15        -2.3210   -3.6620   -1.7350 hc        1 MOL     -0.038823
     36 H16        -1.6500   -5.2750   -3.3590 hx        1 MOL      0.070047
     37 H17        -0.7800   -4.0440   -4.2850 hx        1 MOL      0.070047
     38 H18        -2.8430   -2.9400   -4.7190 hn        1 MOL      0.257727
     39 H19        -3.0140   -4.5900   -5.0080 hn        1 MOL      0.257727
     40 H20        -3.6690   -3.9540   -3.7510 hn        1 MOL      0.257727
     41 N4          3.2160   -4.1690   -0.9570 n         1 MOL     -0.444386
     42 C13         4.3340   -4.2180   -1.9460 c3        1 MOL     -0.012597
     43 C14         5.6840   -3.6920   -1.5600 c         1 MOL      0.420400
     44 O6          6.4860   -3.3560   -2.4780 o         1 MOL     -0.539278
     45 C15         3.7970   -3.5970   -3.2290 c3        1 MOL     -0.205119
     46 C16         3.3160   -2.1450   -3.1720 c         1 MOL      0.735109
     47 O7          2.6740   -1.6690   -4.1040 o         1 MOL     -0.724715
     48 O8          3.4740   -1.5340   -2.0850 o         1 MOL     -0.724715
     49 H21         2.9830   -3.3500   -0.4210 hn        1 MOL      0.303614
     50 H22         4.5200   -5.2480   -2.2380 h1        1 MOL      0.138542
     51 H23         2.8920   -4.1500   -3.4880 hc        1 MOL      0.075526
     52 H24         4.5720   -3.7210   -3.9890 hc        1 MOL      0.075526
     53 N5          5.8530   -3.3650   -0.2930 n         1 MOL     -0.109226
     54 C17         7.1400   -3.1290    0.3180 c3        1 MOL     -0.253621
     55 C18         7.7850   -1.7490    0.1500 c         1 MOL      0.527279
     56 O9          8.8510   -1.5390    0.7260 o         1 MOL     -0.534705
     57 H25         5.0390   -3.6770    0.2220 hn        1 MOL      0.194884
     58 H26         7.8680   -3.8790    0.0030 h1        1 MOL      0.129249
     59 H27         7.0590   -3.2720    1.3960 h1        1 MOL      0.129249
     60 N6          7.0660   -0.8010   -0.5560 n         1 MOL     -0.063129
     61 C19         7.5950    0.5010   -0.8650 c3        1 MOL     -0.037512
     62 C20         6.4030    1.5310   -0.6670 c         1 MOL      0.507722
     63 O10         5.2370    1.1440   -0.4770 o         1 MOL     -0.441559
     64 C21         8.1350    0.3120   -2.3180 c3        1 MOL     -0.145279
     65 C22         7.0060    0.3920   -3.3710 c         1 MOL      0.519664
     66 N7          6.3750   -0.7110   -3.6630 n         1 MOL     -0.611418
     67 O11         6.6880    1.4740   -3.8700 o         1 MOL     -0.574207
     68 H28         6.2000   -1.0570   -1.0020 hn        1 MOL      0.041016
     69 H29         8.3880    0.7230   -0.1520 h1        1 MOL      0.082339
     70 H30         8.6180   -0.6570   -2.3630 hc        1 MOL      0.060215
     71 H31         8.8980    1.0710   -2.5200 hc        1 MOL      0.060215
     72 H32         6.6230   -1.5960   -3.2610 hn        1 MOL      0.330639
     73 H33         5.8170   -0.5720   -4.4930 hn        1 MOL      0.330639
     74 N8          6.6530    2.8770   -0.6910 n         1 MOL     -0.432778
     75 C23         5.7170    3.9910   -0.9830 c3        1 MOL     -0.228863
     76 C24         4.7740    4.3510    0.2160 c         1 MOL      0.648061
     77 O12         5.1530    4.3340    1.3720 o         1 MOL     -0.496800
     78 H34         7.6160    3.1890   -0.7380 hn        1 MOL      0.333227
     79 H35         5.0780    3.7960   -1.8420 h1        1 MOL      0.134222
     80 H36         6.2810    4.9060   -1.1700 h1        1 MOL      0.134222
     81 N9          3.4580    4.6520   -0.0660 n         1 MOL     -0.655056
     82 C25         2.4060    4.7230    0.9260 c3        1 MOL      0.441374
     83 C26         2.2010    3.2760    1.4150 c         1 MOL      0.419022
     84 O13         2.8170    2.3680    0.9760 o         1 MOL     -0.456760
     85 C27         1.0690    5.3140    0.4280 c3        1 MOL     -0.097782
     86 C28         1.1890    6.6810   -0.1750 ca        1 MOL      0.006789
     87 C29         1.2610    6.9540   -1.5510 ca        1 MOL     -0.167910
     88 C30         1.2580    7.7550    0.7360 ca        1 MOL     -0.167910
     89 C31         1.4620    8.2750   -1.9570 ca        1 MOL     -0.190440
     90 C32         1.4590    9.0720    0.3200 ca        1 MOL     -0.190440
     91 C33         1.4390    9.3750   -1.0790 ca        1 MOL      0.256563
     92 O14         1.4170   10.6430   -1.5330 oh        1 MOL     -0.398423
     93 H37         3.2410    4.7620   -1.0480 hn        1 MOL      0.242860
     94 H38         2.8480    5.3450    1.6890 h1        1 MOL      0.007157
     95 H39         0.2990    5.3540    1.1950 hc        1 MOL      0.039764
     96 H40         0.7150    4.5790   -0.2960 hc        1 MOL      0.039764
     97 H41         1.3540    6.2110   -2.3350 ha        1 MOL      0.118947
     98 H42         1.2270    7.4900    1.7750 ha        1 MOL      0.118947
     99 H43         1.4970    8.4640   -3.0240 ha        1 MOL      0.142452
    100 H44         1.3640    9.8630    1.0560 ha        1 MOL      0.142452
    101 H45         1.2330   10.5820   -2.4640 ho        1 MOL      0.326751
    102 N10         1.1970    3.1560    2.2430 n         1 MOL     -0.694918
    103 C34         0.6980    1.8780    2.9200 c3        1 MOL      0.004360
    104 C35         0.0660    0.8650    1.9500 c         1 MOL      0.845973
    105 O15         0.8310    0.3540    1.1460 o         1 MOL     -0.597188
    106 C36         1.6810    1.3170    3.9090 c3        1 MOL      0.360942
    107 C37         1.0740    0.3040    4.8760 c3        1 MOL     -0.160180
    108 C38         2.5920    2.3370    4.6950 c3        1 MOL     -0.328243
    109 C39         0.1960    1.0670    5.9420 c3        1 MOL     -0.217116
    110 H46         0.9260    4.0450    2.6430 hn        1 MOL      0.315353
    111 H47        -0.1530    2.2990    3.4650 h1        1 MOL      0.071806
    112 H48         2.3380    0.7260    3.2750 hc        1 MOL     -0.024698
    113 H49         1.8190   -0.2770    5.4110 hc        1 MOL      0.067710
    114 H50         0.4930   -0.4310    4.3100 hc        1 MOL      0.067710
    115 H51         3.2940    2.7920    4.0000 hc        1 MOL      0.091313
    116 H52         2.0490    3.1440    5.1890 hc        1 MOL      0.091313
    117 H53         3.1910    1.7620    5.3980 hc        1 MOL      0.091313
    118 H54        -0.5960    1.6010    5.4050 hc        1 MOL      0.054598
    119 H55        -0.3440    0.4050    6.6340 hc        1 MOL      0.054598
    120 H56         0.7760    1.7310    6.5840 hc        1 MOL      0.054598
    121 N11        -1.2050    0.4880    2.0470 n         1 MOL     -0.734322
    122 C40        -1.7770   -0.5690    1.2370 c3        1 MOL      0.049796
    123 C41        -3.2640   -0.2080    1.0490 c         1 MOL      0.561108
    124 O16        -3.9940    0.0430    2.0180 o         1 MOL     -0.499374
    125 C42        -1.7290   -1.9130    1.9110 c3        1 MOL      0.216951
    126 O17        -2.6390   -2.9330    1.3580 oh        1 MOL     -0.685368
    127 H57        -1.8360    1.0010    2.6570 hn        1 MOL      0.339989
    128 H58        -1.2230   -0.6390    0.3000 h1        1 MOL      0.135017
    129 H59        -1.8830   -1.6980    2.9650 h1        1 MOL      0.055005
    130 H60        -0.7210   -2.3250    1.8540 h1        1 MOL      0.055005
    131 H61        -2.5190   -3.8090    1.7390 ho        1 MOL      0.446257
    132 N12        -3.6880   -0.1320   -0.2400 n         1 MOL     -0.475138
    133 C43        -5.0430    0.1490   -0.6910 c3        1 MOL      0.177691
    134 C44        -5.4250   -0.9790   -1.7570 c         1 MOL      0.582483
    135 O18        -4.6130   -1.3470   -2.5160 o         1 MOL     -0.553984
    136 C45        -4.9900    1.5660   -1.3420 c3        1 MOL     -0.141657
    137 H62        -3.0450   -0.4040   -0.9600 hn        1 MOL      0.222823
    138 H63        -5.7500    0.2500    0.1280 h1        1 MOL      0.083190
    139 H64        -4.4550    2.2360   -0.6760 hc        1 MOL      0.036430
    140 H65        -4.3450    1.4370   -2.2150 hc        1 MOL      0.036430
    141 H66        -5.9620    1.9440   -1.6410 hc        1 MOL      0.036430
    142 N13        -6.6690   -1.5110   -1.8600 n         1 MOL     -0.684257
    143 C46        -7.9230   -1.1610   -1.2030 c3        1 MOL      0.580295
    144 C47        -8.6030    0.1330   -1.7300 c         1 MOL      0.444275
    145 O19        -8.1800    0.6160   -2.7730 o         1 MOL     -0.540114
    146 C48        -8.8320   -2.4280   -1.3760 c3        1 MOL     -0.441785
    147 H67        -6.6860   -2.2500   -2.5440 hn        1 MOL      0.320328
    148 H68        -7.6040   -1.0740   -0.1640 h1        1 MOL     -0.057752
    149 H69        -9.7500   -2.3600   -0.8000 hc        1 MOL      0.116685
    150 H70        -8.9100   -2.6710   -2.4350 hc        1 MOL      0.116685
    151 H71        -8.3290   -3.2400   -0.8430 hc        1 MOL      0.116685
    152 N14        -9.6070    0.7220   -1.0830 n         1 MOL     -0.569705
    153 C49       -10.1850    0.3640    0.1840 c3        1 MOL     -0.106087
    154 C50        -9.7040    1.3060    1.3260 c         1 MOL      0.457322
    155 O20        -9.3980    0.8690    2.4290 o         1 MOL     -0.518799
    156 C51       -11.7430    0.4570    0.0200 c3        1 MOL      0.315664
    157 C52       -12.2610   -0.7280   -0.8770 c3        1 MOL     -0.224682
    158 C53       -13.7380   -0.6030   -1.2310 c         1 MOL      0.647385
    159 O21       -14.1290   -0.6100   -2.4130 o         1 MOL     -0.668711
    160 O22       -14.4460   -0.3640   -0.1910 o         1 MOL     -0.668711
    161 H72        -9.9300    1.5790   -1.4980 hn        1 MOL      0.375345
    162 H73        -9.9730   -0.6600    0.5100 h1        1 MOL      0.097728
    163 H74       -11.9490    1.3880   -0.4980 hc        1 MOL     -0.048882
    164 H75       -12.2020    0.4520    1.0070 hc        1 MOL     -0.048882
    165 H76       -12.0240   -1.6310   -0.3110 hc        1 MOL      0.033772
    166 H77       -11.7890   -0.7290   -1.8600 hc        1 MOL      0.033772
    167 N15        -9.4400    2.5720    1.0750 n         1 MOL     -0.335092
    168 C54        -8.9730    3.5730    2.0890 c3        1 MOL     -0.045625
    169 H78        -8.1190    4.1220    1.6910 h1        1 MOL      0.069585
    170 H79        -9.7810    4.2700    2.3110 h1        1 MOL      0.069585
    171 H80        -8.6780    3.0560    3.0030 h1        1 MOL      0.069585
    172 H81        -9.7160    2.9230    0.1640 hn        1 MOL      0.231664
    173 Ca1         2.6570    0.4390   -0.7470 Ca        1 MOL      1.744312
    174 O23         0.5440   -0.2280   -2.3360 oh        1 MOL     -0.872927
    175 H82        -0.3060    0.2070   -2.4660 ho        1 MOL      0.419534
    176 H83         0.6890   -0.7090   -3.1450 ho        1 MOL      0.419534
    177 O24         3.3650    0.9810   -3.3200 oh        1 MOL     -0.872927
    178 H84         3.3470    1.5250   -4.1080 ho        1 MOL      0.419534
    179 H85         3.3630    0.0830   -3.6400 ho        1 MOL      0.419534
    180 O25         1.0000    2.4850   -1.3130 oh        1 MOL     -0.872927
    181 H86         0.0670    2.5690   -1.5100 ho        1 MOL      0.419534
    182 H87         1.4130    3.2180   -1.7710 ho        1 MOL      0.419534
@<TRIPOS>BOND
     1    1    2 1   
     2    1    4 1   
     3    1    5 1   
     4    1    6 1   
     5    2    3 2   
     6    2    7 1   
     7    7    8 1   
     8    7   15 1   
     9    8    9 1   
    10    8   11 1   
    11    8   16 1   
    12    9   10 2   
    13    9   19 1   
    14   11   12 1   
    15   11   17 1   
    16   11   18 1   
    17   12   13 1   
    18   12   14 1   
    19   19   20 1   
    20   19   28 1   
    21   20   21 1   
    22   20   23 1   
    23   20   29 1   
    24   21   22 2   
    25   21   41 1   
    26   23   24 1   
    27   23   30 1   
    28   23   31 1   
    29   24   25 1   
    30   24   32 1   
    31   24   33 1   
    32   25   26 1   
    33   25   34 1   
    34   25   35 1   
    35   26   27 1   
    36   26   36 1   
    37   26   37 1   
    38   27   38 1   
    39   27   39 1   
    40   27   40 1   
    41   41   42 1   
    42   41   49 1   
    43   42   43 1   
    44   42   45 1   
    45   42   50 1   
    46   43   44 2   
    47   43   53 1   
    48   45   46 1   
    49   45   51 1   
    50   45   52 1   
    51   46   47 1   
    52   46   48 1   
    53   53   54 1   
    54   53   57 1   
    55   54   55 1   
    56   54   58 1   
    57   54   59 1   
    58   55   56 2   
    59   55   60 1   
    60   60   61 1   
    61   60   68 1   
    62   61   62 1   
    63   61   64 1   
    64   61   69 1   
    65   62   63 2   
    66   62   74 1   
    67   64   65 1   
    68   64   70 1   
    69   64   71 1   
    70   65   66 1   
    71   65   67 2   
    72   66   72 1   
    73   66   73 1   
    74   74   75 1   
    75   74   78 1   
    76   75   76 1   
    77   75   79 1   
    78   75   80 1   
    79   76   77 2   
    80   76   81 1   
    81   81   82 1   
    82   81   93 1   
    83   82   83 1   
    84   82   85 1   
    85   82   94 1   
    86   83   84 2   
    87   83  102 1   
    88   85   86 1   
    89   85   95 1   
    90   85   96 1   
    91   86   87 ar  
    92   86   88 ar  
    93   87   89 ar  
    94   87   97 1   
    95   88   90 ar  
    96   88   98 1   
    97   89   91 ar  
    98   89   99 1   
    99   90   91 ar  
   100   90  100 1   
   101   91   92 1   
   102   92  101 1   
   103  102  103 1   
   104  102  110 1   
   105  103  104 1   
   106  103  106 1   
   107  103  111 1   
   108  104  105 2   
   109  104  121 1   
   110  106  107 1   
   111  106  108 1   
   112  106  112 1   
   113  107  109 1   
   114  107  113 1   
   115  107  114 1   
   116  108  115 1   
   117  108  116 1   
   118  108  117 1   
   119  109  118 1   
   120  109  119 1   
   121  109  120 1   
   122  121  122 1   
   123  121  127 1   
   124  122  123 1   
   125  122  125 1   
   126  122  128 1   
   127  123  124 2   
   128  123  132 1   
   129  125  126 1   
   130  125  129 1   
   131  125  130 1   
   132  126  131 1   
   133  132  133 1   
   134  132  137 1   
   135  133  134 1   
   136  133  136 1   
   137  133  138 1   
   138  134  135 2   
   139  134  142 1   
   140  136  139 1   
   141  136  140 1   
   142  136  141 1   
   143  142  143 1   
   144  142  147 1   
   145  143  144 1   
   146  143  146 1   
   147  143  148 1   
   148  144  145 2   
   149  144  152 1   
   150  146  149 1   
   151  146  150 1   
   152  146  151 1   
   153  152  153 1   
   154  152  161 1   
   155  153  154 1   
   156  153  156 1   
   157  153  162 1   
   158  154  155 2   
   159  154  167 1   
   160  156  157 1   
   161  156  163 1   
   162  156  164 1   
   163  157  158 1   
   164  157  165 1   
   165  157  166 1   
   166  158  159 1   
   167  158  160 1   
   168  167  168 1   
   169  167  172 1   
   170  168  169 1   
   171  168  170 1   
   172  168  171 1   
   173  174  175 1   
   174  174  176 1   
   175  177  178 1   
   176  177  179 1   
   177  180  181 1   
   178  180  182 1   
@<TRIPOS>SUBSTRUCTURE
     1 MOL         1 TEMP              0 ****  ****    0 ROOT
