@<TRIPOS>MOLECULE
MOL
  185   180     1     0     0
SMALL
resp


@<TRIPOS>ATOM
      1 C1         -5.4570    1.2440   -3.6470 c3        1 MOL     -0.303463
      2 C2         -6.1620    1.3610   -2.2900 c         1 MOL      0.574204
      3 O1         -5.6060    1.3750   -1.2260 o         1 MOL     -0.407113
      4 H1         -5.4440    2.2190   -4.1350 hc        1 MOL      0.082062
      5 H2         -4.4330    0.9010   -3.4960 hc        1 MOL      0.082062
      6 H3         -5.9920    0.5310   -4.2740 hc        1 MOL      0.082062
      7 N1         -7.5070    1.4640   -2.3600 n         1 MOL     -0.517420
      8 C3         -8.4290    1.4260   -1.1820 c3        1 MOL      0.223055
      9 C4         -8.3880    0.1710   -0.2610 c         1 MOL      0.507028
     10 O2         -8.4520    0.2340    0.9450 o         1 MOL     -0.491142
     11 C5         -8.3590    2.6830   -0.3330 c3        1 MOL     -0.260535
     12 C6         -8.5420    3.9420   -1.1750 c         1 MOL      0.746333
     13 O3         -7.5910    4.7300   -1.2770 o         1 MOL     -0.698872
     14 O4         -9.6520    4.0840   -1.7490 o         1 MOL     -0.698872
     15 H4         -7.8960    1.6390   -3.2720 hn        1 MOL      0.308586
     16 H5         -9.4480    1.4190   -1.5780 h1        1 MOL      0.018480
     17 H6         -7.4250    2.7090    0.2360 hc        1 MOL      0.052104
     18 H7         -9.1890    2.5600    0.3540 hc        1 MOL      0.052104
     19 N2         -8.1630   -1.0260   -0.9270 n         1 MOL     -0.670529
     20 C7         -7.8530   -2.3110   -0.3370 c3        1 MOL      0.249122
     21 C8         -6.3020   -2.6090   -0.1810 c         1 MOL      0.551075
     22 O5         -5.8150   -3.7570   -0.0980 o         1 MOL     -0.620739
     23 C9         -8.7030   -3.3760   -1.0670 c3        1 MOL     -0.137327
     24 C10        -9.3490   -4.3820   -0.0830 c3        1 MOL      0.010331
     25 C11       -10.3560   -3.7770    0.8910 c3        1 MOL      0.020008
     26 C12       -10.8950   -4.8300    1.8640 c3        1 MOL      0.145538
     27 N3        -11.7390   -4.1590    2.9360 n4        1 MOL     -0.509597
     28 H8         -8.2400   -1.0400   -1.9380 hn        1 MOL      0.274300
     29 H9         -8.1580   -2.2550    0.7050 h1        1 MOL      0.040211
     30 H10        -8.1240   -3.8940   -1.8360 hc        1 MOL      0.066085
     31 H11        -9.5620   -2.9310   -1.5750 hc        1 MOL      0.066085
     32 H12        -8.5640   -4.8300    0.5310 hc        1 MOL      0.009295
     33 H13        -9.8050   -5.1820   -0.6570 hc        1 MOL      0.009295
     34 H14       -11.1980   -3.4770    0.2630 hc        1 MOL      0.027326
     35 H15        -9.9210   -2.9570    1.4580 hc        1 MOL      0.027326
     36 H16       -10.1230   -5.3750    2.3980 hx        1 MOL      0.058130
     37 H17       -11.4580   -5.5710    1.2930 hx        1 MOL      0.058130
     38 H18       -12.6210   -3.8070    2.5770 hn        1 MOL      0.355036
     39 H19       -12.0370   -4.7910    3.6620 hn        1 MOL      0.355036
     40 H20       -11.2080   -3.4890    3.4840 hn        1 MOL      0.355036
     41 N4         -5.4430   -1.6240   -0.1590 n         1 MOL     -0.412615
     42 C13        -3.9920   -1.8150   -0.2250 c3        1 MOL      0.008662
     43 C14        -3.4480   -2.2750    1.1490 c         1 MOL      0.484400
     44 O6         -3.7290   -1.6480    2.1990 o         1 MOL     -0.537900
     45 C15        -3.2750   -0.5120   -0.7070 c3        1 MOL     -0.214358
     46 C16        -1.7050   -0.5960   -0.8150 c         1 MOL      0.661221
     47 O7         -1.2300   -0.9180   -1.9190 o         1 MOL     -0.717332
     48 O8         -0.8830   -0.5530    0.1300 o         1 MOL     -0.717332
     49 H21        -5.7540   -0.6660   -0.2320 hn        1 MOL      0.262964
     50 H22        -3.8690   -2.5970   -0.9800 h1        1 MOL      0.087694
     51 H23        -3.5240    0.2640    0.0120 hc        1 MOL      0.099367
     52 H24        -3.6140   -0.2850   -1.7240 hc        1 MOL      0.099367
     53 N5         -2.7100   -3.3290    1.1810 n         1 MOL     -0.077039
     54 C17        -2.1580   -3.9980    2.3970 c3        1 MOL     -0.373944
     55 C18        -1.1540   -3.2850    3.3210 c         1 MOL      0.771198
     56 O9         -0.9550   -3.8260    4.3650 o         1 MOL     -0.564471
     57 H25        -2.4580   -3.7670    0.3130 hn        1 MOL      0.180506
     58 H26        -1.5630   -4.7540    1.8780 h1        1 MOL      0.130950
     59 H27        -2.9930   -4.3950    2.9800 h1        1 MOL      0.130950
     60 N6         -0.6580   -2.0930    2.8900 n         1 MOL     -0.533482
     61 C19        -0.0070   -1.1420    3.8170 c3        1 MOL      0.073657
     62 C20        -0.4350    0.2640    3.5170 c         1 MOL      0.451235
     63 O10         0.4080    1.1260    3.6510 o         1 MOL     -0.520270
     64 C21         1.5630   -1.4230    3.7500 c3        1 MOL     -0.350397
     65 C22         2.1900   -0.9190    2.4440 c         1 MOL      0.713429
     66 N7          3.2700   -0.1310    2.5230 n         1 MOL     -0.690300
     67 O11         1.8200   -1.3220    1.3610 o         1 MOL     -0.616746
     68 H28        -1.0690   -1.6750    2.0710 hn        1 MOL      0.311607
     69 H29        -0.1980   -1.3760    4.8670 h1        1 MOL      0.092709
     70 H30         1.7430   -2.4960    3.8090 hc        1 MOL      0.124851
     71 H31         1.9630   -1.0320    4.6880 hc        1 MOL      0.124851
     72 H32         3.3470    0.3500    3.4070 hn        1 MOL      0.313309
     73 H33         3.6840    0.1770    1.6510 hn        1 MOL      0.313309
     74 N8         -1.6960    0.5130    3.0270 n         1 MOL     -0.268483
     75 C23        -2.3210    1.8500    2.8740 c3        1 MOL     -0.093100
     76 C24        -1.5550    2.7970    2.0120 c         1 MOL      0.455844
     77 O12        -1.6390    4.0240    2.1300 o         1 MOL     -0.504823
     78 H34        -2.3090   -0.2790    3.0930 hn        1 MOL      0.169860
     79 H35        -2.5070    2.3220    3.8410 h1        1 MOL      0.108618
     80 H36        -3.3040    1.7130    2.4370 h1        1 MOL      0.108618
     81 N9         -0.7970    2.2280    1.0720 n         1 MOL     -0.444716
     82 C25        -0.0030    2.9980    0.1050 c3        1 MOL      0.123867
     83 C26         1.3120    2.2710   -0.2850 c         1 MOL      0.447137
     84 O13         1.3470    1.0990   -0.6010 o         1 MOL     -0.512541
     85 C27        -0.8060    3.4220   -1.1200 c3        1 MOL      0.072415
     86 C28        -2.0700    4.2410   -0.8670 ca        1 MOL      0.087699
     87 C29        -1.9760    5.6240   -1.1260 ca        1 MOL     -0.281605
     88 C30        -3.2330    3.6570   -0.5160 ca        1 MOL     -0.281605
     89 C31        -3.1800    6.4050   -1.1470 ca        1 MOL     -0.101081
     90 C32        -4.3960    4.3920   -0.5860 ca        1 MOL     -0.101081
     91 C33        -4.3990    5.7430   -1.0090 ca        1 MOL      0.268076
     92 O14        -5.5860    6.3570   -0.9790 oh        1 MOL     -0.544780
     93 H37        -0.8540    1.2210    1.0490 hn        1 MOL      0.354058
     94 H38         0.1760    3.9480    0.6150 h1        1 MOL      0.052470
     95 H39        -1.0210    2.5390   -1.7100 hc        1 MOL     -0.027021
     96 H40        -0.2230    4.1010   -1.7400 hc        1 MOL     -0.027021
     97 H41        -1.0060    6.0850   -1.2400 ha        1 MOL      0.125708
     98 H42        -3.3620    2.6040   -0.3510 ha        1 MOL      0.125708
     99 H43        -3.2080    7.4710   -1.3570 ha        1 MOL      0.092479
    100 H44        -5.3460    3.8820   -0.5140 ha        1 MOL      0.092479
    101 H45        -6.3060    5.7340   -0.8900 ho        1 MOL      0.432466
    102 N10         2.3390    3.1170   -0.5400 n         1 MOL     -0.426369
    103 C34         3.7330    2.6690   -0.9310 c3        1 MOL      0.012467
    104 C35         4.5560    2.2830    0.2760 c         1 MOL      0.522467
    105 O15         4.9790    1.1200    0.3900 o         1 MOL     -0.400584
    106 C36         4.3600    3.7650   -1.8300 c3        1 MOL      0.128049
    107 C37         3.6150    4.2140   -3.1260 c3        1 MOL     -0.077168
    108 C38         5.7510    3.3100   -2.2740 c3        1 MOL     -0.310422
    109 C39         3.1750    3.0480   -4.1380 c3        1 MOL     -0.105831
    110 H46         2.3080    4.0870   -0.2870 hn        1 MOL      0.246007
    111 H47         3.6570    1.7970   -1.5850 h1        1 MOL     -0.010467
    112 H48         4.6470    4.6610   -1.2600 hc        1 MOL     -0.031982
    113 H49         4.2210    4.9160   -3.7050 hc        1 MOL      0.042977
    114 H50         2.6380    4.6450   -2.8910 hc        1 MOL      0.042977
    115 H51         6.3840    3.0820   -1.4110 hc        1 MOL      0.088319
    116 H52         5.5740    2.3650   -2.8040 hc        1 MOL      0.088319
    117 H53         6.2390    4.0130   -2.9500 hc        1 MOL      0.088319
    118 H54         4.0810    2.5560   -4.4900 hc        1 MOL      0.049385
    119 H55         2.5420    2.3510   -3.5910 hc        1 MOL      0.049385
    120 H56         2.5430    3.4930   -4.9120 hc        1 MOL      0.049385
    121 N11         4.6670    3.2170    1.2320 n         1 MOL     -0.423080
    122 C40         5.3600    2.8420    2.5000 c3        1 MOL     -0.066264
    123 C41         6.7350    2.1680    2.4640 c         1 MOL      0.634098
    124 O16         7.0980    1.5550    3.4550 o         1 MOL     -0.505117
    125 C42         5.2450    3.9870    3.5070 c3        1 MOL      0.243574
    126 O17         6.1920    5.0350    3.3590 oh        1 MOL     -0.652247
    127 H57         4.2550    4.1230    1.1140 hn        1 MOL      0.327682
    128 H58         4.6930    2.0400    2.8280 h1        1 MOL      0.039804
    129 H59         5.4240    3.5420    4.4910 h1        1 MOL      0.023868
    130 H60         4.2330    4.4060    3.4850 h1        1 MOL      0.023868
    131 H61         6.0180    5.8150    3.8890 ho        1 MOL      0.425832
    132 N12         7.5250    2.4140    1.3890 n         1 MOL     -0.525181
    133 C43         8.7590    1.6200    1.1910 c3        1 MOL      0.434585
    134 C44         8.6390    0.1040    1.2660 c         1 MOL      0.305106
    135 O18         9.6100   -0.5140    1.6470 o         1 MOL     -0.495145
    136 C45         9.8240    2.2300    2.0940 c3        1 MOL     -0.509438
    137 H62         7.1260    2.9530    0.6340 hn        1 MOL      0.276316
    138 H63         9.1260    1.8290    0.1950 h1        1 MOL     -0.006986
    139 H64         9.6300    1.9490    3.1220 hc        1 MOL      0.138138
    140 H65        10.8050    1.8450    1.8000 hc        1 MOL      0.138138
    141 H66         9.7770    3.3090    1.9480 hc        1 MOL      0.138138
    142 N13         7.4820   -0.4200    0.8430 n         1 MOL     -0.145100
    143 C46         7.2660   -1.8800    0.6940 c3        1 MOL      0.122450
    144 C47         6.7490   -2.3600   -0.6870 c         1 MOL      0.448172
    145 O19         6.2190   -1.6150   -1.4960 o         1 MOL     -0.426653
    146 C48         6.2360   -2.2630    1.8300 c3        1 MOL     -0.048218
    147 H67         6.8870    0.2260    0.3550 hn        1 MOL      0.003157
    148 H68         8.1500   -2.4950    0.8160 h1        1 MOL      0.019245
    149 H69         6.6740   -2.5970    2.7790 hc        1 MOL      0.025984
    150 H70         5.6590   -1.3910    2.1430 hc        1 MOL      0.025984
    151 H71         5.5520   -3.0630    1.5230 hc        1 MOL      0.025984
    152 N14         6.9200   -3.7010   -0.9290 n         1 MOL     -0.533682
    153 C49         6.4750   -4.3870   -2.1160 c3        1 MOL     -0.006802
    154 C50         7.0360   -3.8930   -3.4530 c         1 MOL      0.448938
    155 O20         6.4730   -4.0880   -4.5030 o         1 MOL     -0.475436
    156 C51         4.9750   -4.4480   -2.1430 c3        1 MOL      0.159242
    157 C52         4.2900   -5.0390   -0.8870 c3        1 MOL     -0.119235
    158 C53         2.8070   -4.6070   -0.8020 c         1 MOL      0.671176
    159 O21         2.5830   -3.4360   -0.3620 o         1 MOL     -0.704741
    160 O22         1.8810   -5.1610   -1.4150 o         1 MOL     -0.704741
    161 H72         7.2280   -4.2760   -0.1520 hn        1 MOL      0.328088
    162 H73         6.9120   -5.3780   -2.0590 h1        1 MOL      0.086828
    163 H74         4.6480   -5.0790   -2.9590 hc        1 MOL      0.010822
    164 H75         4.5730   -3.4580   -2.3830 hc        1 MOL      0.010822
    165 H76         4.7770   -4.6390    0.0110 hc        1 MOL      0.004831
    166 H77         4.4640   -6.1170   -0.8510 hc        1 MOL      0.004831
    167 N15         8.1090   -3.0490   -3.4330 n         1 MOL     -0.440095
    168 C54         8.3670   -2.0580   -4.5360 c3        1 MOL      0.053960
    169 H78         7.9400   -2.4310   -5.4670 h1        1 MOL      0.045643
    170 H79         7.9050   -1.1030   -4.2840 h1        1 MOL      0.045643
    171 H80         9.4420   -1.9210   -4.6590 h1        1 MOL      0.045643
    172 H81         8.5540   -2.8690   -2.5460 hn        1 MOL      0.273025
    173 Ca1         1.2370   -1.3760   -1.1630 Ca        1 MOL      1.759600
    174 O23         1.2660   -3.2360   -3.0760 oh        1 MOL     -0.857639
    175 H82         1.5220   -3.9150   -2.4470 ho        1 MOL      0.409342
    176 H83         0.5440   -3.6290   -3.5720 ho        1 MOL      0.409342
    177 O24         3.7970   -0.7100   -1.4100 oh        1 MOL     -0.857639
    178 H84         4.6240   -1.1070   -1.6840 ho        1 MOL      0.409342
    179 H85         4.0450    0.0830   -0.9440 ho        1 MOL      0.409342
    180 O25        -0.4050   -3.4250   -0.7320 oh        1 MOL     -0.857639
    181 H86         0.2080   -4.1040   -0.4370 ho        1 MOL      0.409342
    182 H87        -1.0710   -3.8970   -1.2210 ho        1 MOL      0.409342
    183 O26         0.6500    0.1190   -3.4540 oh        1 MOL     -0.857639
    184 H88        -0.2290    0.0100   -3.0920 ho        1 MOL      0.409342
    185 H89         0.6620    1.0140   -3.7890 ho        1 MOL      0.409342
@<TRIPOS>BOND
     1    1    2 1   
     2    1    4 1   
     3    1    5 1   
     4    1    6 1   
     5    2    3 2   
     6    2    7 1   
     7    7    8 1   
     8    7   15 1   
     9    8    9 1   
    10    8   11 1   
    11    8   16 1   
    12    9   10 2   
    13    9   19 1   
    14   11   12 1   
    15   11   17 1   
    16   11   18 1   
    17   12   13 1   
    18   12   14 1   
    19   19   20 1   
    20   19   28 1   
    21   20   21 1   
    22   20   23 1   
    23   20   29 1   
    24   21   22 2   
    25   21   41 1   
    26   23   24 1   
    27   23   30 1   
    28   23   31 1   
    29   24   25 1   
    30   24   32 1   
    31   24   33 1   
    32   25   26 1   
    33   25   34 1   
    34   25   35 1   
    35   26   27 1   
    36   26   36 1   
    37   26   37 1   
    38   27   38 1   
    39   27   39 1   
    40   27   40 1   
    41   41   42 1   
    42   41   49 1   
    43   42   43 1   
    44   42   45 1   
    45   42   50 1   
    46   43   44 2   
    47   43   53 1   
    48   45   46 1   
    49   45   51 1   
    50   45   52 1   
    51   46   47 1   
    52   46   48 1   
    53   53   54 1   
    54   53   57 1   
    55   54   55 1   
    56   54   58 1   
    57   54   59 1   
    58   55   56 2   
    59   55   60 1   
    60   60   61 1   
    61   60   68 1   
    62   61   62 1   
    63   61   64 1   
    64   61   69 1   
    65   62   63 2   
    66   62   74 1   
    67   64   65 1   
    68   64   70 1   
    69   64   71 1   
    70   65   66 1   
    71   65   67 2   
    72   66   72 1   
    73   66   73 1   
    74   74   75 1   
    75   74   78 1   
    76   75   76 1   
    77   75   79 1   
    78   75   80 1   
    79   76   77 2   
    80   76   81 1   
    81   81   82 1   
    82   81   93 1   
    83   82   83 1   
    84   82   85 1   
    85   82   94 1   
    86   83   84 2   
    87   83  102 1   
    88   85   86 1   
    89   85   95 1   
    90   85   96 1   
    91   86   87 ar  
    92   86   88 ar  
    93   87   89 ar  
    94   87   97 1   
    95   88   90 ar  
    96   88   98 1   
    97   89   91 ar  
    98   89   99 1   
    99   90   91 ar  
   100   90  100 1   
   101   91   92 1   
   102   92  101 1   
   103  102  103 1   
   104  102  110 1   
   105  103  104 1   
   106  103  106 1   
   107  103  111 1   
   108  104  105 2   
   109  104  121 1   
   110  106  107 1   
   111  106  108 1   
   112  106  112 1   
   113  107  109 1   
   114  107  113 1   
   115  107  114 1   
   116  108  115 1   
   117  108  116 1   
   118  108  117 1   
   119  109  118 1   
   120  109  119 1   
   121  109  120 1   
   122  121  122 1   
   123  121  127 1   
   124  122  123 1   
   125  122  125 1   
   126  122  128 1   
   127  123  124 2   
   128  123  132 1   
   129  125  126 1   
   130  125  129 1   
   131  125  130 1   
   132  126  131 1   
   133  132  133 1   
   134  132  137 1   
   135  133  134 1   
   136  133  136 1   
   137  133  138 1   
   138  134  135 2   
   139  134  142 1   
   140  136  139 1   
   141  136  140 1   
   142  136  141 1   
   143  142  143 1   
   144  142  147 1   
   145  143  144 1   
   146  143  146 1   
   147  143  148 1   
   148  144  145 2   
   149  144  152 1   
   150  146  149 1   
   151  146  150 1   
   152  146  151 1   
   153  152  153 1   
   154  152  161 1   
   155  153  154 1   
   156  153  156 1   
   157  153  162 1   
   158  154  155 2   
   159  154  167 1   
   160  156  157 1   
   161  156  163 1   
   162  156  164 1   
   163  157  158 1   
   164  157  165 1   
   165  157  166 1   
   166  158  159 1   
   167  158  160 1   
   168  167  168 1   
   169  167  172 1   
   170  168  169 1   
   171  168  170 1   
   172  168  171 1   
   173  174  175 1   
   174  174  176 1   
   175  177  178 1   
   176  177  179 1   
   177  180  181 1   
   178  180  182 1   
   179  183  184 1   
   180  183  185 1   
@<TRIPOS>SUBSTRUCTURE
     1 MOL         1 TEMP              0 ****  ****    0 ROOT
