@<TRIPOS>MOLECULE
MOL
  192   187     1     0     0
SMALL
resp


@<TRIPOS>ATOM
      1 C1        -10.5800   -1.1790   -1.4410 c3        1 MOL     -0.330953
      2 C2         -9.1380   -1.0130   -0.9090 c         1 MOL      0.640428
      3 O1         -8.1980   -1.4710   -1.5210 o         1 MOL     -0.586097
      4 H1        -10.5940   -1.9430   -2.2180 hc        1 MOL      0.084981
      5 H2        -11.2360   -1.4810   -0.6250 hc        1 MOL      0.084981
      6 H3        -10.9260   -0.2320   -1.8560 hc        1 MOL      0.084981
      7 N1         -8.9660   -0.3410    0.2450 n         1 MOL     -0.545947
      8 C3         -7.6980   -0.2830    1.0120 c3        1 MOL      0.214136
      9 C4         -7.1840   -1.5850    1.4610 c         1 MOL      0.298817
     10 O2         -7.2000   -1.9760    2.6470 o         1 MOL     -0.459093
     11 C5         -7.7180    0.8130    2.0820 c3        1 MOL     -0.090038
     12 C6         -8.1480    2.2100    1.5820 c         1 MOL      0.588368
     13 O3         -8.1900    3.1290    2.4750 o         1 MOL     -0.629698
     14 O4         -8.3950    2.4070    0.3890 o         1 MOL     -0.629698
     15 H4         -9.7710    0.0620    0.7110 hn        1 MOL      0.324188
     16 H5         -6.9680    0.1660    0.3340 h1        1 MOL      0.035381
     17 H6         -6.7210    0.9680    2.5100 hc        1 MOL      0.030919
     18 H7         -8.3340    0.4170    2.8870 hc        1 MOL      0.030919
     19 N2         -6.6970   -2.4200    0.5270 n         1 MOL     -0.200855
     20 C7         -6.1170   -3.7870    0.8460 c3        1 MOL      0.038493
     21 C8         -4.6850   -3.6600    1.5360 c         1 MOL      0.433401
     22 O5         -4.5080   -4.3120    2.5710 o         1 MOL     -0.578015
     23 C9         -6.0120   -4.7480   -0.4220 c3        1 MOL      0.112050
     24 C10        -7.2500   -4.6400   -1.2700 c3        1 MOL     -0.004851
     25 C11        -7.6390   -5.9780   -1.8700 c3        1 MOL     -0.040478
     26 C12        -8.8350   -5.8520   -2.8490 c3        1 MOL      0.113586
     27 N3         -9.4460   -7.1640   -3.2810 n4        1 MOL     -0.219875
     28 H8         -6.8140   -2.2070   -0.4560 hn        1 MOL      0.155537
     29 H9         -6.8370   -4.2880    1.4870 h1        1 MOL      0.054317
     30 H10        -5.8670   -5.7840   -0.1400 hc        1 MOL     -0.023607
     31 H11        -5.0630   -4.5420   -0.9340 hc        1 MOL     -0.023607
     32 H12        -6.9860   -3.9190   -2.0400 hc        1 MOL      0.027378
     33 H13        -8.1050   -4.3290   -0.6810 hc        1 MOL      0.027378
     34 H14        -7.8620   -6.5910   -0.9870 hc        1 MOL      0.025083
     35 H15        -6.8820   -6.4130   -2.5130 hc        1 MOL      0.025083
     36 H16        -8.6010   -5.2880   -3.7600 hx        1 MOL      0.037713
     37 H17        -9.5610   -5.2730   -2.2900 hx        1 MOL      0.037713
     38 H18        -8.9800   -7.3910   -4.1600 hn        1 MOL      0.237654
     39 H19        -9.2540   -7.8870   -2.6010 hn        1 MOL      0.237654
     40 H20       -10.4460   -7.1590   -3.4420 hn        1 MOL      0.237654
     41 N4         -3.7270   -2.8870    1.2560 n         1 MOL     -0.355045
     42 C13        -3.6180   -1.8810    0.2020 c3        1 MOL      0.090290
     43 C14        -3.7600   -0.4320    0.7060 c         1 MOL      0.336877
     44 O6         -3.8400   -0.1860    1.9090 o         1 MOL     -0.378264
     45 C15        -2.3230   -2.1600   -0.5800 c3        1 MOL     -0.282427
     46 C16        -0.9890   -2.0100    0.1700 c         1 MOL      0.696177
     47 O7         -0.8580   -1.0660    0.9340 o         1 MOL     -0.635319
     48 O8         -0.1680   -2.9160    0.0550 o         1 MOL     -0.635319
     49 H21        -3.0200   -2.8580    1.9910 hn        1 MOL      0.355833
     50 H22        -4.3890   -2.0700   -0.5370 h1        1 MOL      0.057317
     51 H23        -2.2920   -1.5560   -1.4940 hc        1 MOL      0.067980
     52 H24        -2.3520   -3.1840   -0.9500 hc        1 MOL      0.067980
     53 N5         -4.0020    0.5810   -0.1490 n         1 MOL     -0.470950
     54 C17        -4.2280    1.9670    0.2210 c3        1 MOL      0.067564
     55 C18        -2.9950    2.7200    0.6240 c         1 MOL      0.547121
     56 O9         -1.8450    2.2690    0.6160 o         1 MOL     -0.415320
     57 H25        -3.9090    0.3100   -1.1160 hn        1 MOL      0.295523
     58 H26        -4.9710    2.0000    1.0210 h1        1 MOL      0.074012
     59 H27        -4.7000    2.4700   -0.6240 h1        1 MOL      0.074012
     60 N6         -3.1710    4.0150    0.9240 n         1 MOL     -0.466539
     61 C19        -2.1890    5.0530    1.1290 c3        1 MOL      0.207186
     62 C20        -2.6510    6.4490    0.5990 c         1 MOL      0.530772
     63 O10        -3.8140    6.6800    0.5670 o         1 MOL     -0.512773
     64 C21        -1.8850    5.0720    2.6320 c3        1 MOL     -0.319122
     65 C22        -1.2280    3.7200    3.1000 c         1 MOL      0.620700
     66 O11        -0.1500    3.2350    2.6260 o         1 MOL     -0.632371
     67 O12        -1.8410    3.0530    3.9410 o         1 MOL     -0.632371
     68 H28        -4.1480    4.2380    0.7930 hn        1 MOL      0.273584
     69 H29        -1.2640    4.6650    0.6950 h1        1 MOL     -0.059994
     70 H30        -2.9090    5.0840    3.0120 hc        1 MOL      0.104857
     71 H31        -1.3510    5.9500    2.9840 hc        1 MOL      0.104857
     72 N7         -1.7740    7.3080    0.1620 n         1 MOL     -0.498680
     73 C23        -0.3140    7.0870    0.1380 c3        1 MOL      0.097267
     74 C24         0.2630    6.2960   -0.9890 c         1 MOL      0.608831
     75 O13        -0.3210    6.2670   -2.0730 o         1 MOL     -0.519366
     76 H32        -2.1190    8.1410   -0.2840 hn        1 MOL      0.322926
     77 H33         0.1040    6.8920    1.1260 h1        1 MOL      0.032436
     78 H34         0.1740    8.0580    0.0170 h1        1 MOL      0.032436
     79 N8          1.4240    5.6580   -0.7040 n         1 MOL     -0.595443
     80 C25         2.0800    4.6690   -1.5900 c3        1 MOL      0.163918
     81 C26         1.2980    3.3460   -1.6270 c         1 MOL      0.518354
     82 O14         0.8060    2.8750   -0.5980 o         1 MOL     -0.664040
     83 C27         3.5930    4.4420   -1.3540 c3        1 MOL      0.333502
     84 C28         4.2500    3.4060   -2.2570 c3        1 MOL     -0.283346
     85 O15         3.8270    4.0550    0.0190 oh        1 MOL     -0.635041
     86 H35         1.7700    5.6740    0.2360 hn        1 MOL      0.267074
     87 H36         1.9840    5.1100   -2.5780 h1        1 MOL      0.030214
     88 H37         3.9150    5.4660   -1.5460 h1        1 MOL      0.001099
     89 H38         3.3490    4.5540    0.6850 ho        1 MOL      0.414416
     90 H39         5.2660    3.2330   -1.9230 hc        1 MOL      0.080617
     91 H40         3.7080    2.4660   -2.2050 hc        1 MOL      0.080617
     92 H41         4.1560    3.7300   -3.2940 hc        1 MOL      0.080617
     93 N9          1.0710    2.9330   -2.8840 n         1 MOL     -0.554897
     94 C29         0.3530    1.6030   -3.0670 c3        1 MOL      0.161423
     95 C30         1.0760    0.4080   -2.3550 c         1 MOL      0.256089
     96 O16         0.8130    0.1000   -1.2360 o         1 MOL     -0.338286
     97 C31        -1.1770    1.6690   -2.7360 c3        1 MOL      0.584840
     98 C32        -1.9210    2.9850   -2.9820 c3        1 MOL     -0.153581
     99 C33        -1.8260    0.5530   -3.5670 c3        1 MOL     -0.439497
    100 C34        -1.6930    3.5550   -4.3840 c3        1 MOL     -0.322475
    101 H42         1.6310    3.2750   -3.6500 hn        1 MOL      0.333513
    102 H43         0.5440    1.3100   -4.0940 h1        1 MOL      0.003851
    103 H44        -1.2250    1.4250   -1.6850 hc        1 MOL     -0.277957
    104 H45        -1.5200    3.6710   -2.2270 hc        1 MOL      0.085456
    105 H46        -2.9550    2.9050   -2.6700 hc        1 MOL      0.085456
    106 H47        -2.8700    0.4770   -3.2760 hc        1 MOL      0.081597
    107 H48        -1.7590    0.8730   -4.6090 hc        1 MOL      0.081597
    108 H49        -1.3250   -0.4180   -3.5250 hc        1 MOL      0.081597
    109 H50        -1.8060    4.6350   -4.4100 hc        1 MOL      0.077954
    110 H51        -0.7460    3.1920   -4.7740 hc        1 MOL      0.077954
    111 H52        -2.5170    3.1350   -4.9710 hc        1 MOL      0.077954
    112 N10         1.9740   -0.3620   -3.0320 n         1 MOL     -0.334708
    113 C35         2.4700   -1.7190   -2.5880 c3        1 MOL     -0.010898
    114 C36         3.9990   -1.9520   -2.8500 c         1 MOL      0.610981
    115 O17         4.5020   -3.0720   -2.6720 o         1 MOL     -0.573610
    116 C37         1.6120   -2.8580   -3.2060 c3        1 MOL      0.397557
    117 C38         1.6430   -2.9640   -4.6760 c3        1 MOL     -0.385959
    118 O18         0.2400   -2.7410   -2.9060 oh        1 MOL     -0.532667
    119 H53         2.2470   -0.0620   -3.9620 hn        1 MOL      0.239009
    120 H54         2.4890   -1.8790   -1.5120 h1        1 MOL      0.016200
    121 H55         1.9890   -3.8110   -2.8210 h1        1 MOL      0.013330
    122 H56         0.1240   -2.9750   -1.9900 ho        1 MOL      0.301747
    123 H57         1.0850   -3.8700   -4.9350 hc        1 MOL      0.087895
    124 H58         1.0980   -2.1290   -5.1140 hc        1 MOL      0.087895
    125 H59         2.6650   -2.9130   -5.0530 hc        1 MOL      0.087895
    126 N11         4.7410   -0.9200   -3.2380 n         1 MOL     -0.480208
    127 C39         6.2250   -1.1070   -3.3660 c3        1 MOL      0.085053
    128 C40         6.7850   -1.0900   -1.9550 c         1 MOL      0.495958
    129 O19         7.1390   -0.0120   -1.4570 o         1 MOL     -0.526878
    130 C41         6.8190   -0.0070   -4.2570 c3        1 MOL      0.355401
    131 C42         8.3640   -0.1990   -4.3760 c3        1 MOL     -0.383808
    132 O20         6.3270   -0.1350   -5.5970 oh        1 MOL     -0.681157
    133 H60         4.3170   -0.1120   -3.6840 hn        1 MOL      0.289732
    134 H61         6.4280   -2.1200   -3.7070 h1        1 MOL      0.076322
    135 H62         6.6070    1.0090   -3.9070 h1        1 MOL      0.010789
    136 H63         6.7230    0.3850   -6.2930 ho        1 MOL      0.428384
    137 H64         8.8470   -0.0420   -3.4090 hc        1 MOL      0.095328
    138 H65         8.5890   -1.1620   -4.8360 hc        1 MOL      0.095328
    139 H66         8.7920    0.4760   -5.1180 hc        1 MOL      0.095328
    140 N12         6.6540   -2.2330   -1.2670 n         1 MOL     -0.664426
    141 C43         6.5450   -2.4530    0.2060 c3        1 MOL      0.307081
    142 C44         5.3170   -1.7510    0.8530 c         1 MOL      0.387974
    143 O21         4.7440   -0.8270    0.3280 o         1 MOL     -0.395641
    144 C45         7.9260   -2.1500    0.8260 c3        1 MOL      0.041307
    145 C46         9.0860   -2.8670    0.2170 c3        1 MOL     -0.051539
    146 C47        10.4840   -2.6820    0.8600 c3        1 MOL     -0.103602
    147 C48        10.8000   -1.2180    1.1140 c3        1 MOL      0.087041
    148 N13        12.1620   -0.9680    1.6980 n4        1 MOL     -0.344814
    149 H67         6.4180   -3.0480   -1.8150 hn        1 MOL      0.343233
    150 H68         6.4980   -3.5080    0.4600 h1        1 MOL      0.014443
    151 H69         7.8380   -2.3930    1.8890 hc        1 MOL     -0.005796
    152 H70         8.0820   -1.0720    0.7800 hc        1 MOL     -0.005796
    153 H71         9.1360   -2.6600   -0.8540 hc        1 MOL      0.038432
    154 H72         8.8340   -3.9210    0.3640 hc        1 MOL      0.038432
    155 H73        11.1910   -3.1710    0.1830 hc        1 MOL      0.053642
    156 H74        10.5420   -3.2210    1.8050 hc        1 MOL      0.053642
    157 H75        10.0660   -0.6620    1.7010 hx        1 MOL      0.089547
    158 H76        10.8840   -0.7540    0.1340 hx        1 MOL      0.089547
    159 H77        12.2740   -1.4360    2.5890 hn        1 MOL      0.271485
    160 H78        12.9200   -1.3400    1.1300 hn        1 MOL      0.271485
    161 H79        12.1990    0.0290    1.8260 hn        1 MOL      0.271485
    162 N14         4.9930   -2.1700    2.0690 n         1 MOL     -0.606212
    163 C49         3.8670   -1.6690    2.7910 c3        1 MOL      0.507082
    164 C50         2.5080   -1.8890    2.0940 c         1 MOL      0.075904
    165 O22         1.7150   -1.0410    2.3280 o         1 MOL     -0.419437
    166 C51         3.8780   -2.1540    4.2630 c3        1 MOL      0.000006
    167 C52         5.1100   -1.7550    4.9540 c3        1 MOL     -0.312782
    168 C53         5.1790   -2.2390    6.3820 c         1 MOL      0.725334
    169 O23         5.1030   -1.4140    7.3140 o         1 MOL     -0.662722
    170 O24         5.3380   -3.4840    6.5890 o         1 MOL     -0.662722
    171 H80         5.4850   -2.9520    2.4830 hn        1 MOL      0.317745
    172 H81         4.0030   -0.5970    2.9450 h1        1 MOL     -0.065173
    173 H82         3.6520   -3.2230    4.3190 hc        1 MOL      0.041635
    174 H83         3.0230   -1.6940    4.7560 hc        1 MOL      0.041635
    175 H84         5.1490   -0.6690    4.9940 hc        1 MOL      0.045141
    176 H85         6.0390   -2.0550    4.4640 hc        1 MOL      0.045141
    177 N15         2.2330   -2.9420    1.3760 n         1 MOL     -0.032611
    178 C54         2.7150   -4.3240    1.5160 c3        1 MOL     -0.013481
    179 H86         2.9610   -4.7230    0.5330 h1        1 MOL      0.017670
    180 H87         3.6040   -4.3370    2.1460 h1        1 MOL      0.017670
    181 H88         1.9370   -4.9360    1.9710 h1        1 MOL      0.017670
    182 H89         1.3620   -2.8310    0.8680 hn        1 MOL      0.207265
    183 Ca1         0.5020    1.1000    1.3730 Ca        1 MOL      1.751152
    184 O25         1.9870    1.4580    3.5140 oh        1 MOL     -0.890024
    185 H90         2.4880    2.2400    3.7170 ho        1 MOL      0.413827
    186 H91         2.3720    0.7730    4.0710 ho        1 MOL      0.413827
    187 O26        -0.8950    0.4670    3.6080 oh        1 MOL     -0.890024
    188 H92        -0.8470    0.0850    4.4860 ho        1 MOL      0.413827
    189 H93        -1.0940    1.3960    3.7640 ho        1 MOL      0.413827
    190 O27         2.9620    1.2090    0.3510 oh        1 MOL     -0.890024
    191 H94         3.6290    0.5160    0.3170 ho        1 MOL      0.413827
    192 H95         3.4680    2.0190    0.2860 ho        1 MOL      0.413827
@<TRIPOS>BOND
     1    1    2 1   
     2    1    4 1   
     3    1    5 1   
     4    1    6 1   
     5    2    3 2   
     6    2    7 1   
     7    7    8 1   
     8    7   15 1   
     9    8    9 1   
    10    8   11 1   
    11    8   16 1   
    12    9   10 2   
    13    9   19 1   
    14   11   12 1   
    15   11   17 1   
    16   11   18 1   
    17   12   13 1   
    18   12   14 1   
    19   19   20 1   
    20   19   28 1   
    21   20   21 1   
    22   20   23 1   
    23   20   29 1   
    24   21   22 2   
    25   21   41 1   
    26   23   24 1   
    27   23   30 1   
    28   23   31 1   
    29   24   25 1   
    30   24   32 1   
    31   24   33 1   
    32   25   26 1   
    33   25   34 1   
    34   25   35 1   
    35   26   27 1   
    36   26   36 1   
    37   26   37 1   
    38   27   38 1   
    39   27   39 1   
    40   27   40 1   
    41   41   42 1   
    42   41   49 1   
    43   42   43 1   
    44   42   45 1   
    45   42   50 1   
    46   43   44 2   
    47   43   53 1   
    48   45   46 1   
    49   45   51 1   
    50   45   52 1   
    51   46   47 1   
    52   46   48 1   
    53   53   54 1   
    54   53   57 1   
    55   54   55 1   
    56   54   58 1   
    57   54   59 1   
    58   55   56 2   
    59   55   60 1   
    60   60   61 1   
    61   60   68 1   
    62   61   62 1   
    63   61   64 1   
    64   61   69 1   
    65   62   63 2   
    66   62   72 1   
    67   64   65 1   
    68   64   70 1   
    69   64   71 1   
    70   65   66 1   
    71   65   67 1   
    72   72   73 1   
    73   72   76 1   
    74   73   74 1   
    75   73   77 1   
    76   73   78 1   
    77   74   75 2   
    78   74   79 1   
    79   79   80 1   
    80   79   86 1   
    81   80   81 1   
    82   80   83 1   
    83   80   87 1   
    84   81   82 2   
    85   81   93 1   
    86   83   84 1   
    87   83   85 1   
    88   83   88 1   
    89   84   90 1   
    90   84   91 1   
    91   84   92 1   
    92   85   89 1   
    93   93   94 1   
    94   93  101 1   
    95   94   95 1   
    96   94   97 1   
    97   94  102 1   
    98   95   96 2   
    99   95  112 1   
   100   97   98 1   
   101   97   99 1   
   102   97  103 1   
   103   98  100 1   
   104   98  104 1   
   105   98  105 1   
   106   99  106 1   
   107   99  107 1   
   108   99  108 1   
   109  100  109 1   
   110  100  110 1   
   111  100  111 1   
   112  112  113 1   
   113  112  119 1   
   114  113  114 1   
   115  113  116 1   
   116  113  120 1   
   117  114  115 2   
   118  114  126 1   
   119  116  117 1   
   120  116  118 1   
   121  116  121 1   
   122  117  123 1   
   123  117  124 1   
   124  117  125 1   
   125  118  122 1   
   126  126  127 1   
   127  126  133 1   
   128  127  128 1   
   129  127  130 1   
   130  127  134 1   
   131  128  129 2   
   132  128  140 1   
   133  130  131 1   
   134  130  132 1   
   135  130  135 1   
   136  131  137 1   
   137  131  138 1   
   138  131  139 1   
   139  132  136 1   
   140  140  141 1   
   141  140  149 1   
   142  141  142 1   
   143  141  144 1   
   144  141  150 1   
   145  142  143 2   
   146  142  162 1   
   147  144  145 1   
   148  144  151 1   
   149  144  152 1   
   150  145  146 1   
   151  145  153 1   
   152  145  154 1   
   153  146  147 1   
   154  146  155 1   
   155  146  156 1   
   156  147  148 1   
   157  147  157 1   
   158  147  158 1   
   159  148  159 1   
   160  148  160 1   
   161  148  161 1   
   162  162  163 1   
   163  162  171 1   
   164  163  164 1   
   165  163  166 1   
   166  163  172 1   
   167  164  165 2   
   168  164  177 1   
   169  166  167 1   
   170  166  173 1   
   171  166  174 1   
   172  167  168 1   
   173  167  175 1   
   174  167  176 1   
   175  168  169 1   
   176  168  170 1   
   177  177  178 1   
   178  177  182 1   
   179  178  179 1   
   180  178  180 1   
   181  178  181 1   
   182  184  185 1   
   183  184  186 1   
   184  187  188 1   
   185  187  189 1   
   186  190  191 1   
   187  190  192 1   
@<TRIPOS>SUBSTRUCTURE
     1 MOL         1 TEMP              0 ****  ****    0 ROOT
