@<TRIPOS>MOLECULE
MOL
  181   177     1     0     0
SMALL
resp


@<TRIPOS>ATOM
      1 C1          4.8240   -5.6540    4.4600 c3        1 MOL     -0.329502
      2 C2          4.5880   -4.2910    3.8130 c         1 MOL      0.730363
      3 O1          4.0310   -3.3410    4.3940 o         1 MOL     -0.589416
      4 H1          5.3370   -5.5200    5.4120 hc        1 MOL      0.073226
      5 H2          3.8660   -6.1470    4.6300 hc        1 MOL      0.073226
      6 H3          5.4370   -6.2680    3.8010 hc        1 MOL      0.073226
      7 N1          5.0290   -4.0990    2.5730 n         1 MOL     -0.696031
      8 C3          5.6960   -5.0250    1.6810 c3        1 MOL      0.401493
      9 C4          5.0460   -5.2650    0.3450 c         1 MOL      0.299619
     10 O2          3.8320   -5.1280    0.1950 o         1 MOL     -0.421454
     11 C5          7.1910   -4.6280    1.6210 c3        1 MOL     -0.587689
     12 C6          7.4900   -3.2800    1.0190 c         1 MOL      0.942573
     13 O3          7.4440   -3.0750   -0.2070 o         1 MOL     -0.765780
     14 O4          7.7750   -2.2440    1.6330 o         1 MOL     -0.765780
     15 H4          4.7810   -3.2440    2.0950 hn        1 MOL      0.476863
     16 H5          5.7530   -6.0200    2.1110 h1        1 MOL      0.040780
     17 H6          7.8060   -5.3990    1.1600 hc        1 MOL      0.104089
     18 H7          7.5410   -4.7170    2.6440 hc        1 MOL      0.104089
     19 N2          5.7540   -5.7860   -0.6710 n         1 MOL     -0.403816
     20 C7          5.4170   -5.7700   -2.0880 c3        1 MOL      0.297355
     21 C8          4.7660   -4.4290   -2.5690 c         1 MOL      0.253786
     22 O5          3.7500   -4.3880   -3.2800 o         1 MOL     -0.471563
     23 C9          4.4110   -6.9580   -2.2990 c3        1 MOL     -0.447412
     24 H8          6.6860   -6.1320   -0.4720 hn        1 MOL      0.228430
     25 H9          6.3320   -5.9060   -2.6520 h1        1 MOL      0.015096
     26 H10         4.8190   -7.9050   -1.9520 hc        1 MOL      0.117526
     27 H11         3.5110   -6.8470   -1.7080 hc        1 MOL      0.117526
     28 H12         4.1920   -6.9580   -3.3690 hc        1 MOL      0.117526
     29 N3          5.2410   -3.2630   -2.0860 n         1 MOL     -0.125613
     30 C10         4.7000   -1.9550   -2.4420 c3        1 MOL      0.155974
     31 C11         5.8560   -1.0690   -2.9060 c         1 MOL      0.371022
     32 O6          6.9900   -1.2810   -2.4530 o         1 MOL     -0.559431
     33 C12         3.9000   -1.2800   -1.2810 c3        1 MOL      0.049539
     34 C13         4.6220   -1.1600    0.0390 c         1 MOL      0.953251
     35 O7          5.6910   -0.5320    0.1440 o         1 MOL     -0.823805
     36 O8          4.1370   -1.7910    0.9890 o         1 MOL     -0.823805
     37 H13         5.9810   -3.2960   -1.3980 hn        1 MOL      0.084688
     38 H14         4.0420   -2.0320   -3.3150 h1        1 MOL     -0.014732
     39 H15         2.8860   -1.6810   -1.2350 hc        1 MOL     -0.017116
     40 H16         3.8890   -0.2150   -1.5410 hc        1 MOL     -0.017116
     41 N4          5.5240   -0.0110   -3.6890 n         1 MOL     -0.276647
     42 C14         6.3800    1.1960   -3.9610 c3        1 MOL     -0.442643
     43 C15         6.5260    2.0120   -2.8140 c         1 MOL      0.644696
     44 O9          7.1660    1.6030   -1.8700 o         1 MOL     -0.627140
     45 H17         4.5580    0.1350   -3.9220 hn        1 MOL      0.289096
     46 H18         5.8600    1.8410   -4.6720 h1        1 MOL      0.175442
     47 H19         7.3370    0.9270   -4.4090 h1        1 MOL      0.175442
     48 N5          5.9160    3.1890   -2.7560 n         1 MOL     -0.486696
     49 C16         5.8040    4.0620   -1.5500 c3        1 MOL      0.153116
     50 C17         4.3550    3.9160   -0.9770 c         1 MOL      0.636228
     51 O10         3.4590    3.5370   -1.7460 o         1 MOL     -0.525521
     52 C18         6.0560    5.4970   -1.9660 c3        1 MOL     -0.426457
     53 C19         6.4650    6.3320   -0.7600 c         1 MOL      0.739354
     54 N6          7.6980    6.6580   -0.6830 n         1 MOL     -0.835973
     55 O11         5.7120    6.6350    0.1210 o         1 MOL     -0.525787
     56 H20         5.3940    3.4360   -3.5820 hn        1 MOL      0.310349
     57 H21         6.5380    3.7870   -0.7910 h1        1 MOL      0.053771
     58 H22         5.1660    5.8530   -2.4880 hc        1 MOL      0.114174
     59 H23         6.8670    5.5830   -2.6860 hc        1 MOL      0.114174
     60 H24         8.3260    6.3230   -1.4090 hn        1 MOL      0.362400
     61 H25         8.0030    7.4490   -0.1450 hn        1 MOL      0.362400
     62 N7          4.1530    4.0490    0.3170 n         1 MOL     -0.577015
     63 C20         2.8630    3.8980    0.8350 c3        1 MOL      0.207830
     64 C21         1.9760    5.1700    0.7620 c         1 MOL      0.655890
     65 O12         2.4250    6.1810    0.1850 o         1 MOL     -0.587859
     66 H26         4.9590    4.1530    0.9160 hn        1 MOL      0.348606
     67 H27         2.9270    3.7830    1.9250 h1        1 MOL     -0.011419
     68 H28         2.2780    3.0720    0.4420 h1        1 MOL     -0.011419
     69 N8          0.7360    5.1680    1.2770 n         1 MOL     -0.622394
     70 C22         0.0490    4.2750    2.2080 c3        1 MOL      0.044276
     71 C23        -0.6180    3.0570    1.5540 c         1 MOL      0.469872
     72 O13        -0.7570    2.9690    0.3420 o         1 MOL     -0.469805
     73 C24        -0.9790    5.1350    2.9620 c3        1 MOL      0.273411
     74 C25        -0.3610    6.2900    3.8640 c3        1 MOL     -0.274759
     75 O14        -1.7770    5.8390    1.9540 oh        1 MOL     -0.603648
     76 H29         0.1840    6.0050    1.1350 hn        1 MOL      0.360683
     77 H30         0.7870    3.9170    2.9270 h1        1 MOL      0.019982
     78 H31        -1.6280    4.4990    3.5550 h1        1 MOL      0.056847
     79 H32        -2.4530    5.2180    1.6660 ho        1 MOL      0.387887
     80 H33        -1.1190    6.8050    4.4590 hc        1 MOL      0.068753
     81 H34         0.1980    5.8720    4.6970 hc        1 MOL      0.068753
     82 H35         0.1910    7.0290    3.2860 hc        1 MOL      0.068753
     83 N9         -1.1400    2.1370    2.4510 n         1 MOL     -0.399610
     84 C26        -1.8960    0.9480    2.1340 c3        1 MOL      0.104819
     85 C27        -3.1500    0.9060    2.9800 c         1 MOL      0.364783
     86 O15        -3.1370    0.8510    4.2190 o         1 MOL     -0.572713
     87 C28        -1.0480   -0.3560    2.3950 c3        1 MOL     -0.128698
     88 C29         0.3570   -0.1300    1.7450 c3        1 MOL     -0.282833
     89 C30        -1.7530   -1.4780    1.6800 c3        1 MOL      0.001528
     90 C31         0.4800    0.0660    0.2240 c3        1 MOL     -0.294712
     91 H36        -1.1740    2.3490    3.4330 hn        1 MOL      0.250666
     92 H37        -2.1930    0.9900    1.0830 h1        1 MOL      0.180163
     93 H38        -0.9280   -0.5910    3.4530 hc        1 MOL      0.051019
     94 H39         1.0030   -0.9860    1.9630 hc        1 MOL      0.122726
     95 H40         0.8560    0.7570    2.1150 hc        1 MOL      0.122726
     96 H41        -2.6440   -1.7580    2.2500 hc        1 MOL      0.048755
     97 H42        -2.0640   -1.1610    0.6860 hc        1 MOL      0.048755
     98 H43        -1.1500   -2.3870    1.6510 hc        1 MOL      0.048755
     99 H44        -0.4120    0.5310   -0.1930 hc        1 MOL      0.086892
    100 H45         1.3270    0.6710   -0.0960 hc        1 MOL      0.086892
    101 H46         0.5150   -0.9220   -0.2400 hc        1 MOL      0.086892
    102 N10        -4.4120    1.0350    2.5650 n         1 MOL     -0.199451
    103 C32        -4.8800    1.2890    1.2390 c3        1 MOL      0.183052
    104 C33        -6.3570    0.9350    0.9900 c         1 MOL      0.331355
    105 O16        -7.1700    0.9690    1.9010 o         1 MOL     -0.538233
    106 C34        -4.6930    2.7140    0.8470 c3        1 MOL     -0.012343
    107 C35        -4.8700    3.7250    2.0280 c         1 MOL      0.563546
    108 O17        -6.0260    4.1100    2.3580 o         1 MOL     -0.628161
    109 O18        -3.8900    4.1430    2.7200 o         1 MOL     -0.628161
    110 H47        -5.0750    0.7970    3.2850 hn        1 MOL      0.234336
    111 H48        -4.2850    0.6560    0.5790 h1        1 MOL     -0.084847
    112 H49        -5.3740    2.9920    0.0490 hc        1 MOL     -0.013423
    113 H50        -3.7030    2.8550    0.3960 hc        1 MOL     -0.013423
    114 N11        -6.7150    0.7100   -0.2930 n         1 MOL     -0.003297
    115 C36        -8.0890    0.2950   -0.5960 c3        1 MOL      0.137679
    116 C37        -8.0730   -0.3100   -2.0120 c         1 MOL     -0.127615
    117 O19        -7.4040    0.2210   -2.9220 o         1 MOL     -0.385807
    118 C38        -9.0730    1.5090   -0.6780 c3        1 MOL     -0.065291
    119 C39        -8.7600    2.7590   -1.5690 ca        1 MOL     -0.013736
    120 C40        -8.2100    3.9050   -1.0750 ca        1 MOL     -0.100720
    121 C41        -9.0170    2.7470   -2.9610 ca        1 MOL     -0.100720
    122 C42        -8.0350    5.0150   -1.8400 ca        1 MOL     -0.090813
    123 C43        -8.7530    3.8230   -3.7580 ca        1 MOL     -0.090813
    124 C44        -8.2900    5.0160   -3.1740 ca        1 MOL     -0.148400
    125 H51        -6.0010    0.7250   -1.0160 hn        1 MOL      0.196546
    126 H52        -8.4300   -0.4500    0.1160 h1        1 MOL      0.026621
    127 H53        -9.3020    1.8250    0.3330 hc        1 MOL      0.043042
    128 H54       -10.0320    1.0650   -0.9510 hc        1 MOL      0.043042
    129 H55        -7.9020    3.9090   -0.0420 ha        1 MOL      0.098088
    130 H56        -9.5000    1.8860   -3.4210 ha        1 MOL      0.098088
    131 H57        -7.6170    5.8900   -1.3690 ha        1 MOL      0.082440
    132 H58        -9.0370    3.8250   -4.7960 ha        1 MOL      0.082440
    133 H59        -8.1430    5.8920   -3.7900 ha        1 MOL      0.087984
    134 N12        -8.8610   -1.3360   -2.3360 n         1 MOL      0.224083
    135 C45        -9.8270   -1.9750   -1.3650 c3        1 MOL      0.143738
    136 C46        -9.2170   -2.7080   -0.2130 c         1 MOL      0.194496
    137 O20        -9.8770   -2.9090    0.8150 o         1 MOL     -0.521046
    138 C47       -10.6180   -3.0100   -2.1290 c3        1 MOL     -0.234379
    139 C48       -10.4570   -2.6000   -3.5870 c3        1 MOL     -0.233865
    140 C49        -9.0900   -1.9000   -3.6440 c3        1 MOL     -0.012382
    141 H60       -10.4520   -1.1350   -1.0500 h1        1 MOL      0.041676
    142 H61       -10.0900   -3.9630   -2.1370 hc        1 MOL      0.119243
    143 H62       -11.6450   -3.0650   -1.7750 hc        1 MOL      0.119243
    144 H63       -10.3450   -3.4790   -4.2110 hc        1 MOL      0.066939
    145 H64       -11.2260   -1.8600   -3.8320 hc        1 MOL      0.066939
    146 H65        -8.2890   -2.5720   -3.9540 h1        1 MOL      0.058142
    147 H66        -9.1220   -1.1300   -4.4120 h1        1 MOL      0.058142
    148 N13        -7.9620   -3.2330   -0.3320 n         1 MOL     -0.085077
    149 C50        -7.2080   -3.7220    0.7570 c3        1 MOL      0.082639
    150 C51        -7.7510   -5.1220    1.0930 c         1 MOL      0.315233
    151 O21        -7.5390   -6.0880    0.3630 o         1 MOL     -0.566133
    152 C52        -5.6770   -3.8550    0.4490 c3        1 MOL     -0.018538
    153 C53        -4.9170   -2.5060    0.2650 c3        1 MOL      0.081820
    154 C54        -4.9940   -1.9490   -1.1270 c         1 MOL      0.647599
    155 O22        -5.6590   -2.4420   -2.0390 o         1 MOL     -0.667332
    156 O23        -4.3110   -0.8950   -1.2830 o         1 MOL     -0.667332
    157 H67        -7.6430   -3.2840   -1.2880 hn        1 MOL      0.170193
    158 H68        -7.4040   -3.0430    1.5780 h1        1 MOL      0.106411
    159 H69        -5.6980   -4.4560   -0.4580 hc        1 MOL      0.013254
    160 H70        -5.1460   -4.4160    1.2160 hc        1 MOL      0.013254
    161 H71        -3.8860   -2.6310    0.5740 hc        1 MOL     -0.114580
    162 H72        -5.3450   -1.8120    1.0020 hc        1 MOL     -0.114580
    163 N14        -8.3860   -5.3820    2.2120 n         1 MOL     -0.186280
    164 C55        -8.6500   -4.5580    3.3490 c3        1 MOL     -0.175832
    165 H73        -7.7430   -4.0220    3.6260 h1        1 MOL      0.071808
    166 H74        -9.4350   -3.8420    3.1060 h1        1 MOL      0.071808
    167 H75        -8.9720   -5.1820    4.1830 h1        1 MOL      0.071808
    168 H76        -8.6500   -6.3370    2.3700 hn        1 MOL      0.226806
    169 Ca1         8.1530   -0.4850   -0.3040 Ca        1 MOL      1.832102
    170 O24        10.1830   -0.7970    1.4770 oh        1 MOL     -0.827396
    171 H77        10.4120   -1.4680    2.1120 ho        1 MOL      0.392693
    172 H78        10.7580   -0.0510    1.6940 ho        1 MOL      0.392693
    173 O25        10.3940   -1.5770   -1.2540 oh        1 MOL     -0.827396
    174 H79        10.6380   -2.4930   -1.1630 ho        1 MOL      0.392693
    175 H80        11.2190   -1.1270   -1.4430 ho        1 MOL      0.392693
    176 O26         9.9540    1.3020   -0.9130 oh        1 MOL     -0.827396
    177 H81        10.2020    2.0380   -0.3610 ho        1 MOL      0.392693
    178 H82        10.4860    1.4190   -1.7050 ho        1 MOL      0.392693
    179 O27         7.9930    1.8770    1.2630 oh        1 MOL     -0.827396
    180 H83         8.5340    1.9450    2.0510 ho        1 MOL      0.392693
    181 H84         7.6600    2.7650    1.1300 ho        1 MOL      0.392693
@<TRIPOS>BOND
     1    1    2 1   
     2    1    4 1   
     3    1    5 1   
     4    1    6 1   
     5    2    3 2   
     6    2    7 1   
     7    7    8 1   
     8    7   15 1   
     9    8    9 1   
    10    8   11 1   
    11    8   16 1   
    12    9   10 2   
    13    9   19 1   
    14   11   12 1   
    15   11   17 1   
    16   11   18 1   
    17   12   13 1   
    18   12   14 1   
    19   19   20 1   
    20   19   24 1   
    21   20   21 1   
    22   20   23 1   
    23   20   25 1   
    24   21   22 2   
    25   21   29 1   
    26   23   26 1   
    27   23   27 1   
    28   23   28 1   
    29   29   30 1   
    30   29   37 1   
    31   30   31 1   
    32   30   33 1   
    33   30   38 1   
    34   31   32 2   
    35   31   41 1   
    36   33   34 1   
    37   33   39 1   
    38   33   40 1   
    39   34   35 1   
    40   34   36 1   
    41   41   42 1   
    42   41   45 1   
    43   42   43 1   
    44   42   46 1   
    45   42   47 1   
    46   43   44 2   
    47   43   48 1   
    48   48   49 1   
    49   48   56 1   
    50   49   50 1   
    51   49   52 1   
    52   49   57 1   
    53   50   51 2   
    54   50   62 1   
    55   52   53 1   
    56   52   58 1   
    57   52   59 1   
    58   53   54 1   
    59   53   55 2   
    60   54   60 1   
    61   54   61 1   
    62   62   63 1   
    63   62   66 1   
    64   63   64 1   
    65   63   67 1   
    66   63   68 1   
    67   64   65 2   
    68   64   69 1   
    69   69   70 1   
    70   69   76 1   
    71   70   71 1   
    72   70   73 1   
    73   70   77 1   
    74   71   72 2   
    75   71   83 1   
    76   73   74 1   
    77   73   75 1   
    78   73   78 1   
    79   74   80 1   
    80   74   81 1   
    81   74   82 1   
    82   75   79 1   
    83   83   84 1   
    84   83   91 1   
    85   84   85 1   
    86   84   87 1   
    87   84   92 1   
    88   85   86 2   
    89   85  102 1   
    90   87   88 1   
    91   87   89 1   
    92   87   93 1   
    93   88   90 1   
    94   88   94 1   
    95   88   95 1   
    96   89   96 1   
    97   89   97 1   
    98   89   98 1   
    99   90   99 1   
   100   90  100 1   
   101   90  101 1   
   102  102  103 1   
   103  102  110 1   
   104  103  104 1   
   105  103  106 1   
   106  103  111 1   
   107  104  105 2   
   108  104  114 1   
   109  106  107 1   
   110  106  112 1   
   111  106  113 1   
   112  107  108 1   
   113  107  109 1   
   114  114  115 1   
   115  114  125 1   
   116  115  116 1   
   117  115  118 1   
   118  115  126 1   
   119  116  117 2   
   120  116  134 1   
   121  118  119 1   
   122  118  127 1   
   123  118  128 1   
   124  119  120 ar  
   125  119  121 ar  
   126  120  122 ar  
   127  120  129 1   
   128  121  123 ar  
   129  121  130 1   
   130  122  124 ar  
   131  122  131 1   
   132  123  124 ar  
   133  123  132 1   
   134  124  133 1   
   135  134  135 1   
   136  134  140 1   
   137  135  136 1   
   138  135  138 1   
   139  135  141 1   
   140  136  137 2   
   141  136  148 1   
   142  138  139 1   
   143  138  142 1   
   144  138  143 1   
   145  139  140 1   
   146  139  144 1   
   147  139  145 1   
   148  140  146 1   
   149  140  147 1   
   150  148  149 1   
   151  148  157 1   
   152  149  150 1   
   153  149  152 1   
   154  149  158 1   
   155  150  151 2   
   156  150  163 1   
   157  152  153 1   
   158  152  159 1   
   159  152  160 1   
   160  153  154 1   
   161  153  161 1   
   162  153  162 1   
   163  154  155 1   
   164  154  156 1   
   165  163  164 1   
   166  163  168 1   
   167  164  165 1   
   168  164  166 1   
   169  164  167 1   
   170  170  171 1   
   171  170  172 1   
   172  173  174 1   
   173  173  175 1   
   174  176  177 1   
   175  176  178 1   
   176  179  180 1   
   177  179  181 1   
@<TRIPOS>SUBSTRUCTURE
     1 MOL         1 TEMP              0 ****  ****    0 ROOT
