@<TRIPOS>MOLECULE
MOL
  192   187     1     0     0
SMALL
resp


@<TRIPOS>ATOM
      1 C1          3.8390    8.3760    2.2620 c3        1 MOL     -0.304811
      2 C2          2.8980    7.1620    2.2710 c         1 MOL      0.535143
      3 O1          2.7890    6.4490    3.2790 o         1 MOL     -0.540915
      4 H1          3.2940    9.2600    2.5920 hc        1 MOL      0.081205
      5 H2          4.6760    8.1930    2.9360 hc        1 MOL      0.081205
      6 H3          4.2150    8.5380    1.2510 hc        1 MOL      0.081205
      7 N1          2.2420    6.8960    1.1590 n         1 MOL     -0.227922
      8 C3          1.2660    5.8210    1.0000 c3        1 MOL     -0.130045
      9 C4          1.9240    4.4510    0.6620 c         1 MOL      0.516343
     10 O2          1.2890    3.4460    0.9410 o         1 MOL     -0.499932
     11 C5          0.3670    6.0550   -0.2390 c3        1 MOL     -0.191725
     12 C6          1.1660    6.2600   -1.5010 c         1 MOL      0.681103
     13 O3          0.9200    5.4970   -2.4390 o         1 MOL     -0.689697
     14 O4          1.9490    7.2050   -1.7760 o         1 MOL     -0.689697
     15 H4          2.3530    7.5330    0.3820 hn        1 MOL      0.162282
     16 H5          0.5520    5.7200    1.8140 h1        1 MOL      0.126416
     17 H6         -0.1680    6.9660   -0.0080 hc        1 MOL      0.086618
     18 H7         -0.3610    5.2530   -0.3560 hc        1 MOL      0.086618
     19 N2          3.1980    4.5140    0.1830 n         1 MOL     -0.285263
     20 C7          4.0920    3.4910   -0.3940 c3        1 MOL     -0.022596
     21 C8          4.6460    2.6240    0.7290 c         1 MOL      0.444704
     22 O5          5.0010    3.1860    1.7910 o         1 MOL     -0.523911
     23 C9          5.2750    4.1180   -1.1830 c3        1 MOL     -0.121678
     24 C10         4.9360    5.1630   -2.1820 c3        1 MOL      0.049034
     25 C11         4.3080    4.6580   -3.4260 c3        1 MOL     -0.014645
     26 C12         3.9990    5.7270   -4.4990 c3        1 MOL     -0.059467
     27 N3          2.9280    6.5900   -4.0490 n4        1 MOL     -0.172039
     28 H8          3.5840    5.4500    0.1200 hn        1 MOL      0.215727
     29 H9          3.5120    2.7890   -0.9910 h1        1 MOL      0.116476
     30 H10         5.9150    3.2980   -1.5080 hc        1 MOL      0.050939
     31 H11         5.9020    4.6210   -0.4420 hc        1 MOL      0.050939
     32 H12         5.8400    5.7130   -2.4100 hc        1 MOL     -0.007955
     33 H13         4.1990    5.8560   -1.7780 hc        1 MOL     -0.007955
     34 H14         3.3890    4.1310   -3.1500 hc        1 MOL      0.065271
     35 H15         4.9850    4.0000   -3.9640 hc        1 MOL      0.065271
     36 H16         3.7460    5.1040   -5.3540 hx        1 MOL      0.054265
     37 H17         4.8430    6.3830   -4.7090 hx        1 MOL      0.054265
     38 H18         3.2470    7.0600   -3.2170 hn        1 MOL      0.262057
     39 H19         2.6300    7.2700   -4.7310 hn        1 MOL      0.262057
     40 H20         2.2000    6.0410   -3.6130 hn        1 MOL      0.262057
     41 N4          4.7830    1.2520    0.5840 n         1 MOL     -0.294303
     42 C13         4.3150    0.3770   -0.5580 c3        1 MOL      0.121297
     43 C14         4.7380    0.7140   -1.9290 c         1 MOL      0.534045
     44 O6          3.8650    1.1140   -2.7360 o         1 MOL     -0.646239
     45 C15         2.7420    0.1880   -0.4200 c3        1 MOL     -0.252793
     46 C16         2.3030   -0.4840    0.8710 c         1 MOL      0.731692
     47 O7          3.0510   -1.1130    1.5480 o         1 MOL     -0.756104
     48 O8          1.0980   -0.4780    1.1590 o         1 MOL     -0.756104
     49 H21         5.1770    0.8690    1.4290 hn        1 MOL      0.257484
     50 H22         4.8000   -0.5970   -0.4280 h1        1 MOL      0.019226
     51 H23         2.2750   -0.3760   -1.2170 hc        1 MOL      0.112215
     52 H24         2.3190    1.1940   -0.4750 hc        1 MOL      0.112215
     53 N5          6.0120    0.7540   -2.2640 n         1 MOL     -0.461805
     54 C17         7.2150    0.4220   -1.4820 c3        1 MOL      0.206724
     55 C18         7.6140   -1.0200   -1.6550 c         1 MOL      0.498709
     56 O9          7.6370   -1.4910   -2.7560 o         1 MOL     -0.579328
     57 H25         6.1370    0.7830   -3.2680 hn        1 MOL      0.299098
     58 H26         7.0600    0.6230   -0.4250 h1        1 MOL      0.004611
     59 H27         8.0850    0.9910   -1.8130 h1        1 MOL      0.004611
     60 N6          7.9340   -1.7710   -0.6420 n         1 MOL     -0.295574
     61 C19         7.9900   -1.4870    0.7730 c3        1 MOL     -0.130988
     62 C20         7.0010   -2.3810    1.6410 c         1 MOL      0.506554
     63 O10         6.9300   -2.3310    2.8960 o         1 MOL     -0.530313
     64 C21         9.4570   -1.5140    1.3200 c3        1 MOL     -0.277959
     65 C22        10.3600   -0.4870    0.5990 c         1 MOL      0.737796
     66 O11        11.5530   -0.7350    0.6140 o         1 MOL     -0.626790
     67 O12         9.9790    0.4850   -0.0170 o         1 MOL     -0.626790
     68 H28         8.3270   -2.6650   -0.8720 hn        1 MOL      0.281688
     69 H29         7.5910   -0.4880    0.9710 h1        1 MOL      0.150887
     70 H30         9.9580   -2.4790    1.3180 hc        1 MOL      0.084936
     71 H31         9.3850   -1.2870    2.3820 hc        1 MOL      0.084936
     72 N7          6.1810   -3.1470    0.9170 n         1 MOL     -0.281845
     73 C23         5.0290   -3.9220    1.3900 c3        1 MOL     -0.032791
     74 C24         4.1560   -4.3980    0.2280 c         1 MOL      0.564805
     75 O13         4.4820   -4.3460   -0.9750 o         1 MOL     -0.477526
     76 H32         6.4230   -3.2090   -0.0690 hn        1 MOL      0.154412
     77 H33         4.3340   -3.3160    1.9650 h1        1 MOL      0.061836
     78 H34         5.3200   -4.7530    2.0310 h1        1 MOL      0.061836
     79 N8          2.9680   -4.9710    0.6060 n         1 MOL     -0.551236
     80 C25         2.0270   -5.3590   -0.4640 c3        1 MOL     -0.182868
     81 C26         1.0420   -4.2430   -0.6320 c         1 MOL      0.891527
     82 O14         0.6800   -3.5950    0.3130 o         1 MOL     -0.723510
     83 C27         1.3590   -6.6760    0.0250 c3        1 MOL      0.648629
     84 C28         0.2950   -7.3290   -0.8690 c3        1 MOL     -0.494546
     85 O15         0.8940   -6.5670    1.3720 oh        1 MOL     -0.767653
     86 H35         2.7190   -5.0260    1.5760 hn        1 MOL      0.251568
     87 H36         2.5830   -5.5170   -1.3840 h1        1 MOL      0.094061
     88 H37         2.1570   -7.4050    0.1490 h1        1 MOL     -0.049942
     89 H38         1.5810   -6.8100    2.0020 ho        1 MOL      0.423674
     90 H39        -0.0160   -8.2690   -0.4030 hc        1 MOL      0.132470
     91 H40        -0.6180   -6.7560   -1.0210 hc        1 MOL      0.132470
     92 H41         0.7900   -7.4820   -1.8280 hc        1 MOL      0.132470
     93 N9          0.5490   -4.0850   -1.8200 n         1 MOL     -0.696607
     94 C29        -0.5970   -3.2140   -2.2360 c3        1 MOL      0.304197
     95 C30        -1.9460   -4.0290   -2.0960 c         1 MOL      0.092432
     96 O16        -2.2780   -4.7670   -3.0560 o         1 MOL     -0.452977
     97 C31        -0.2930   -2.5400   -3.6160 c3        1 MOL     -0.199862
     98 C32         0.8320   -1.4970   -3.5680 c3        1 MOL      0.331020
     99 C33        -1.5910   -1.7430   -4.0190 c3        1 MOL      0.058533
    100 C34         1.2170   -0.7940   -4.8420 c3        1 MOL     -0.471915
    101 H42         0.8400   -4.7430   -2.5310 hn        1 MOL      0.340440
    102 H43        -0.7190   -2.4550   -1.4610 h1        1 MOL      0.030928
    103 H44        -0.1440   -3.2770   -4.4050 hc        1 MOL      0.079630
    104 H45         1.7540   -2.0400   -3.3290 hc        1 MOL     -0.029408
    105 H46         0.7030   -0.8210   -2.7110 hc        1 MOL     -0.029408
    106 H47        -2.4410   -2.4310   -4.0570 hc        1 MOL     -0.012340
    107 H48        -1.7510   -0.8560   -3.4100 hc        1 MOL     -0.012340
    108 H49        -1.5300   -1.3330   -5.0290 hc        1 MOL     -0.012340
    109 H50         0.3990   -0.0970   -5.0220 hc        1 MOL      0.117183
    110 H51         2.0840   -0.1700   -4.5950 hc        1 MOL      0.117183
    111 H52         1.4750   -1.5230   -5.6140 hc        1 MOL      0.117183
    112 N10        -2.6910   -3.8570   -0.9830 n         1 MOL      0.003169
    113 C35        -4.0680   -4.4740   -0.8570 c3        1 MOL     -0.023938
    114 C36        -5.2460   -3.6080   -1.3930 c         1 MOL      0.287080
    115 O17        -6.4150   -4.0860   -1.4600 o         1 MOL     -0.503608
    116 C37        -4.2730   -5.0050    0.5740 c3        1 MOL      0.268265
    117 C38        -4.4890   -3.9440    1.6260 c3        1 MOL     -0.078975
    118 O18        -3.1850   -5.8030    0.9110 oh        1 MOL     -0.641209
    119 H53        -2.2640   -3.2900   -0.2660 hn        1 MOL      0.198658
    120 H54        -4.0800   -5.3430   -1.5150 h1        1 MOL      0.117207
    121 H55        -5.1860   -5.5930    0.6460 h1        1 MOL      0.039248
    122 H56        -3.3550   -6.2310    1.7540 ho        1 MOL      0.399037
    123 H57        -5.1730   -3.1290    1.3990 hc        1 MOL      0.009480
    124 H58        -4.7510   -4.3900    2.5840 hc        1 MOL      0.009480
    125 H59        -3.6040   -3.3070    1.7000 hc        1 MOL      0.009480
    126 N11        -4.9650   -2.3790   -1.8430 n         1 MOL     -0.081192
    127 C39        -5.8210   -1.2280   -2.1380 c3        1 MOL     -0.001905
    128 C40        -6.6620   -0.8020   -0.9540 c         1 MOL      0.433916
    129 O19        -7.0270   -1.5950   -0.0720 o         1 MOL     -0.460902
    130 C41        -6.6970   -1.5020   -3.4670 c3        1 MOL      0.430906
    131 C42        -5.8670   -2.0800   -4.5420 c3        1 MOL     -0.227379
    132 O20        -7.1940   -0.2240   -3.7450 oh        1 MOL     -0.669673
    133 H60        -4.0050   -2.1410   -1.6210 hn        1 MOL      0.113355
    134 H61        -5.1860   -0.3820   -2.4080 h1        1 MOL      0.073781
    135 H62        -7.5230   -2.2000   -3.2820 h1        1 MOL     -0.008222
    136 H63        -8.0480   -0.2810   -4.1730 ho        1 MOL      0.384895
    137 H64        -5.7630   -3.1630   -4.5110 hc        1 MOL      0.056273
    138 H65        -6.3740   -1.9190   -5.4980 hc        1 MOL      0.056273
    139 H66        -4.8630   -1.6580   -4.5140 hc        1 MOL      0.056273
    140 N12        -6.9910    0.4900   -0.9350 n         1 MOL     -0.493396
    141 C43        -7.9370    1.0660    0.0720 c3        1 MOL      0.047275
    142 C44        -7.3350    1.2470    1.4480 c         1 MOL      0.532622
    143 O21        -8.0510    1.4340    2.4280 o         1 MOL     -0.573571
    144 C45        -8.5590    2.4000   -0.4230 c3        1 MOL      0.007199
    145 C46        -9.5330    2.0970   -1.5740 c3        1 MOL     -0.182513
    146 C47       -10.4340    3.2940   -1.9650 c3        1 MOL     -0.095086
    147 C48       -11.5060    3.6840   -0.9120 c3        1 MOL      0.069806
    148 N13       -12.7030    4.3920   -1.4880 n4        1 MOL     -0.244861
    149 H67        -6.7220    1.0980   -1.6910 hn        1 MOL      0.321364
    150 H68        -8.7670    0.3860    0.2240 h1        1 MOL      0.109586
    151 H69        -7.8310    3.1440   -0.7520 hc        1 MOL      0.048050
    152 H70        -9.1540    2.7510    0.4130 hc        1 MOL      0.048050
    153 H71       -10.0580    1.1630   -1.3660 hc        1 MOL      0.071622
    154 H72        -8.9800    1.8990   -2.4880 hc        1 MOL      0.071622
    155 H73       -10.9260    3.1210   -2.9200 hc        1 MOL      0.065009
    156 H74        -9.9180    4.2330   -2.1520 hc        1 MOL      0.065009
    157 H75       -11.0350    4.2290   -0.0920 hx        1 MOL      0.068573
    158 H76       -11.9370    2.7970   -0.4300 hx        1 MOL      0.068573
    159 H77       -13.2600    3.7610   -2.0530 hn        1 MOL      0.228666
    160 H78       -13.2840    4.5950   -0.6940 hn        1 MOL      0.228666
    161 H79       -12.4560    5.2320   -1.9900 hn        1 MOL      0.228666
    162 N14        -5.9780    1.2790    1.5960 n         1 MOL     -0.348315
    163 C49        -5.3960    1.4310    2.9460 c3        1 MOL     -0.157484
    164 C50        -5.4360    2.8620    3.4650 c         1 MOL      0.518934
    165 O22        -5.1210    3.8000    2.7470 o         1 MOL     -0.549488
    166 C51        -3.9120    1.0460    2.9920 c3        1 MOL      0.180462
    167 C52        -3.7390   -0.4420    2.7790 c3        1 MOL     -0.140277
    168 C53        -2.2570   -0.9330    2.7380 c         1 MOL      0.663019
    169 O23        -1.7420   -1.3490    1.6900 o         1 MOL     -0.724109
    170 O24        -1.5450   -1.0470    3.7750 o         1 MOL     -0.724109
    171 H80        -5.4610    1.5170    0.7590 hn        1 MOL      0.257931
    172 H81        -5.9180    0.8560    3.7130 h1        1 MOL      0.130273
    173 H82        -3.4960    1.3420    3.9640 hc        1 MOL      0.012451
    174 H83        -3.2950    1.5270    2.2340 hc        1 MOL      0.012451
    175 H84        -4.2300   -0.7400    1.8490 hc        1 MOL      0.011518
    176 H85        -4.2530   -0.8920    3.6320 hc        1 MOL      0.011518
    177 N15        -5.7990    3.0190    4.7130 n         1 MOL     -0.295270
    178 C54        -5.8600    4.3090    5.4820 c3        1 MOL     -0.236660
    179 H86        -5.8180    5.1480    4.7870 h1        1 MOL      0.118014
    180 H87        -6.7900    4.3530    6.0470 h1        1 MOL      0.118014
    181 H88        -5.0150    4.3640    6.1690 h1        1 MOL      0.118014
    182 H89        -5.9120    2.1690    5.2340 hn        1 MOL      0.236614
    183 Ca1         0.5550   -2.4050    2.6680 Ca        1 MOL      1.768425
    184 O25         1.4980   -0.3450    4.5000 oh        1 MOL     -0.836127
    185 H90         2.1860   -0.1710    5.1490 ho        1 MOL      0.418634
    186 H91         1.2580    0.5320    4.1750 ho        1 MOL      0.418634
    187 O26         0.1510   -3.4390    5.1840 oh        1 MOL     -0.836127
    188 H92        -0.1110   -4.3490    5.2720 ho        1 MOL      0.418634
    189 H93        -0.0300   -3.0430    6.0350 ho        1 MOL      0.418634
    190 O27        -1.2030   -4.4960    2.5720 oh        1 MOL     -0.836127
    191 H94        -1.2160   -5.0610    3.3370 ho        1 MOL      0.418634
    192 H95        -1.5380   -5.0400    1.8600 ho        1 MOL      0.418634
@<TRIPOS>BOND
     1    1    2 1   
     2    1    4 1   
     3    1    5 1   
     4    1    6 1   
     5    2    3 2   
     6    2    7 1   
     7    7    8 1   
     8    7   15 1   
     9    8    9 1   
    10    8   11 1   
    11    8   16 1   
    12    9   10 2   
    13    9   19 1   
    14   11   12 1   
    15   11   17 1   
    16   11   18 1   
    17   12   13 1   
    18   12   14 1   
    19   19   20 1   
    20   19   28 1   
    21   20   21 1   
    22   20   23 1   
    23   20   29 1   
    24   21   22 2   
    25   21   41 1   
    26   23   24 1   
    27   23   30 1   
    28   23   31 1   
    29   24   25 1   
    30   24   32 1   
    31   24   33 1   
    32   25   26 1   
    33   25   34 1   
    34   25   35 1   
    35   26   27 1   
    36   26   36 1   
    37   26   37 1   
    38   27   38 1   
    39   27   39 1   
    40   27   40 1   
    41   41   42 1   
    42   41   49 1   
    43   42   43 1   
    44   42   45 1   
    45   42   50 1   
    46   43   44 2   
    47   43   53 1   
    48   45   46 1   
    49   45   51 1   
    50   45   52 1   
    51   46   47 1   
    52   46   48 1   
    53   53   54 1   
    54   53   57 1   
    55   54   55 1   
    56   54   58 1   
    57   54   59 1   
    58   55   56 2   
    59   55   60 1   
    60   60   61 1   
    61   60   68 1   
    62   61   62 1   
    63   61   64 1   
    64   61   69 1   
    65   62   63 2   
    66   62   72 1   
    67   64   65 1   
    68   64   70 1   
    69   64   71 1   
    70   65   66 1   
    71   65   67 1   
    72   72   73 1   
    73   72   76 1   
    74   73   74 1   
    75   73   77 1   
    76   73   78 1   
    77   74   75 2   
    78   74   79 1   
    79   79   80 1   
    80   79   86 1   
    81   80   81 1   
    82   80   83 1   
    83   80   87 1   
    84   81   82 2   
    85   81   93 1   
    86   83   84 1   
    87   83   85 1   
    88   83   88 1   
    89   84   90 1   
    90   84   91 1   
    91   84   92 1   
    92   85   89 1   
    93   93   94 1   
    94   93  101 1   
    95   94   95 1   
    96   94   97 1   
    97   94  102 1   
    98   95   96 2   
    99   95  112 1   
   100   97   98 1   
   101   97   99 1   
   102   97  103 1   
   103   98  100 1   
   104   98  104 1   
   105   98  105 1   
   106   99  106 1   
   107   99  107 1   
   108   99  108 1   
   109  100  109 1   
   110  100  110 1   
   111  100  111 1   
   112  112  113 1   
   113  112  119 1   
   114  113  114 1   
   115  113  116 1   
   116  113  120 1   
   117  114  115 2   
   118  114  126 1   
   119  116  117 1   
   120  116  118 1   
   121  116  121 1   
   122  117  123 1   
   123  117  124 1   
   124  117  125 1   
   125  118  122 1   
   126  126  127 1   
   127  126  133 1   
   128  127  128 1   
   129  127  130 1   
   130  127  134 1   
   131  128  129 2   
   132  128  140 1   
   133  130  131 1   
   134  130  132 1   
   135  130  135 1   
   136  131  137 1   
   137  131  138 1   
   138  131  139 1   
   139  132  136 1   
   140  140  141 1   
   141  140  149 1   
   142  141  142 1   
   143  141  144 1   
   144  141  150 1   
   145  142  143 2   
   146  142  162 1   
   147  144  145 1   
   148  144  151 1   
   149  144  152 1   
   150  145  146 1   
   151  145  153 1   
   152  145  154 1   
   153  146  147 1   
   154  146  155 1   
   155  146  156 1   
   156  147  148 1   
   157  147  157 1   
   158  147  158 1   
   159  148  159 1   
   160  148  160 1   
   161  148  161 1   
   162  162  163 1   
   163  162  171 1   
   164  163  164 1   
   165  163  166 1   
   166  163  172 1   
   167  164  165 2   
   168  164  177 1   
   169  166  167 1   
   170  166  173 1   
   171  166  174 1   
   172  167  168 1   
   173  167  175 1   
   174  167  176 1   
   175  168  169 1   
   176  168  170 1   
   177  177  178 1   
   178  177  182 1   
   179  178  179 1   
   180  178  180 1   
   181  178  181 1   
   182  184  185 1   
   183  184  186 1   
   184  187  188 1   
   185  187  189 1   
   186  190  191 1   
   187  190  192 1   
@<TRIPOS>SUBSTRUCTURE
     1 MOL         1 TEMP              0 ****  ****    0 ROOT
