@<TRIPOS>MOLECULE
MOL
  192   187     1     0     0
SMALL
resp


@<TRIPOS>ATOM
      1 C1          4.7450    4.7840   -2.9800 c3        1 MOL     -0.420854
      2 C2          5.2780    3.5800   -2.1470 c         1 MOL      0.750545
      3 O1          4.8250    3.2070   -1.0630 o         1 MOL     -0.674981
      4 H1          4.3750    5.5570   -2.3060 hc        1 MOL      0.112836
      5 H2          5.5510    5.1900   -3.5900 hc        1 MOL      0.112836
      6 H3          3.9340    4.4480   -3.6270 hc        1 MOL      0.112836
      7 N1          6.2000    2.8370   -2.7910 n         1 MOL     -0.529456
      8 C3          6.9690    1.6280   -2.4560 c3        1 MOL      0.026792
      9 C4          6.0460    0.4750   -2.0680 c         1 MOL      0.468432
     10 O2          5.7350    0.2410   -0.9450 o         1 MOL     -0.531133
     11 C5          8.1850    1.7840   -1.5170 c3        1 MOL     -0.085216
     12 C6          7.8230    2.6180   -0.3640 c         1 MOL      0.719131
     13 O3          7.1450    2.1290    0.5870 o         1 MOL     -0.714482
     14 O4          8.2770    3.7770   -0.3240 o         1 MOL     -0.714482
     15 H4          6.3260    3.2240   -3.7220 hn        1 MOL      0.282421
     16 H5          7.4010    1.4150   -3.4300 h1        1 MOL      0.062394
     17 H6          8.9510    2.2590   -2.1340 hc        1 MOL      0.018062
     18 H7          8.5900    0.8020   -1.2760 hc        1 MOL      0.018062
     19 N2          5.6700   -0.2890   -3.1320 n         1 MOL     -0.431960
     20 C7          4.7420   -1.4020   -3.3150 c3        1 MOL      0.086712
     21 C8          5.4090   -2.6260   -2.7470 c         1 MOL      0.321910
     22 O5          5.7610   -3.6130   -3.4080 o         1 MOL     -0.556567
     23 C9          3.2480   -1.1060   -2.8220 c3        1 MOL      0.301316
     24 C10         2.1160   -2.1100   -3.2800 c3        1 MOL     -0.300717
     25 C11         2.7130    0.2310   -3.3320 c3        1 MOL     -0.274034
     26 C12         2.1820   -2.5730   -4.7350 c3        1 MOL      0.006226
     27 H8          6.0350    0.0740   -4.0010 hn        1 MOL      0.242024
     28 H9          4.7710   -1.3940   -4.4040 h1        1 MOL      0.065099
     29 H10         3.2110   -1.0110   -1.7420 hc        1 MOL     -0.040804
     30 H11         1.1330   -1.7320   -3.0030 hc        1 MOL      0.108726
     31 H12         2.3050   -2.8960   -2.5580 hc        1 MOL      0.108726
     32 H13         1.7520    0.5760   -2.9340 hc        1 MOL      0.038691
     33 H14         3.4810    0.9850   -3.1390 hc        1 MOL      0.038691
     34 H15         2.6030    0.1140   -4.4070 hc        1 MOL      0.038691
     35 H16         3.1890   -2.8750   -5.0210 hc        1 MOL     -0.005374
     36 H17         1.5330   -3.4080   -4.9870 hc        1 MOL     -0.005374
     37 H18         2.0040   -1.7960   -5.4750 hc        1 MOL     -0.005374
     38 N3          5.7280   -2.5470   -1.4210 n         1 MOL      0.036440
     39 C13         6.8220   -3.2690   -0.7310 c3        1 MOL      0.009083
     40 C14         6.2730   -4.4840   -0.0270 c         1 MOL      0.504706
     41 O6          6.8980   -5.5030    0.0030 o         1 MOL     -0.547570
     42 C15         7.4900   -2.3170    0.2630 c3        1 MOL     -0.263720
     43 C16         8.5350   -3.0350    1.1160 c         1 MOL      0.671548
     44 O7          8.2010   -3.6400    2.1710 o         1 MOL     -0.713119
     45 O8          9.7520   -2.9250    0.6950 o         1 MOL     -0.713119
     46 H19         5.4600   -1.6440   -1.0540 hn        1 MOL      0.082356
     47 H20         7.4340   -3.5590   -1.5930 h1        1 MOL      0.060676
     48 H21         6.7060   -1.9460    0.9110 hc        1 MOL      0.099125
     49 H22         7.8850   -1.4240   -0.2240 hc        1 MOL      0.099125
     50 N4          5.1000   -4.5070    0.5970 n         1 MOL     -0.460091
     51 C17         3.9950   -3.5170    0.7050 c3        1 MOL     -0.050666
     52 C18         2.7900   -4.1670    1.3970 c         1 MOL      0.684094
     53 O9          2.5880   -5.3900    1.2600 o         1 MOL     -0.617010
     54 H23         4.8780   -5.3530    1.1150 hn        1 MOL      0.301375
     55 H24         3.7130   -3.1040   -0.2680 h1        1 MOL      0.014327
     56 H25         4.4440   -2.6780    1.2370 h1        1 MOL      0.014327
     57 N5          1.9130   -3.4120    2.0210 n         1 MOL     -0.561246
     58 C19         1.8350   -1.9760    2.3030 c3        1 MOL      0.840727
     59 C20         2.1550   -0.9590    1.1700 c         1 MOL      0.043955
     60 O10         3.2980   -0.5820    0.9110 o         1 MOL     -0.374093
     61 C21         2.7540   -1.6320    3.4880 c3        1 MOL     -0.867280
     62 C22         2.2890   -2.2740    4.8730 c         1 MOL      0.825955
     63 O11         1.3220   -3.0030    4.9480 o         1 MOL     -0.734273
     64 O12         2.9500   -2.0680    5.9280 o         1 MOL     -0.734273
     65 H26         1.1460   -3.8590    2.4930 hn        1 MOL      0.252409
     66 H27         0.8040   -1.8280    2.6220 h1        1 MOL     -0.071675
     67 H28         2.8370   -0.5530    3.5510 hc        1 MOL      0.203955
     68 H29         3.7330   -2.0360    3.2630 hc        1 MOL      0.203955
     69 N6          1.0990   -0.4890    0.4940 n         1 MOL     -0.192414
     70 C23        -0.3790   -0.8400    0.6040 c3        1 MOL      0.026031
     71 C24        -0.7940   -2.1970    0.0480 c         1 MOL      0.501458
     72 O13        -0.0210   -2.7470   -0.7690 o         1 MOL     -0.533568
     73 H30         1.3820    0.3020   -0.0680 hn        1 MOL      0.187387
     74 H31        -0.9080   -0.0520    0.0740 h1        1 MOL      0.020775
     75 H32        -0.7110   -0.8110    1.6550 h1        1 MOL      0.020775
     76 N7         -1.9860   -2.7020    0.3730 n         1 MOL     -0.513447
     77 C25        -2.5290   -3.8340   -0.2690 c3        1 MOL      0.135103
     78 C26        -3.1670   -3.5430   -1.6140 c         1 MOL      0.463437
     79 O14        -3.4230   -4.5070   -2.3480 o         1 MOL     -0.543014
     80 C27        -3.3030   -4.6430    0.7890 c3        1 MOL     -0.107380
     81 C28        -4.6030   -4.0160    1.2620 c3        1 MOL     -0.224456
     82 C29        -5.7560   -4.0400    0.4030 c         1 MOL      0.390771
     83 N8         -6.5100   -5.0910    0.4250 n         1 MOL     -0.570132
     84 O15        -5.9610   -3.1870   -0.4620 o         1 MOL     -0.345264
     85 H33        -2.5890   -2.2000    1.0190 hn        1 MOL      0.326533
     86 H34        -1.7160   -4.4950   -0.5530 h1        1 MOL      0.107506
     87 H35        -2.7810   -4.8070    1.7370 hc        1 MOL      0.070488
     88 H36        -3.4070   -5.5840    0.2580 hc        1 MOL      0.070488
     89 H37        -4.4920   -2.9840    1.5830 hc        1 MOL      0.118021
     90 H38        -4.8910   -4.5370    2.1790 hc        1 MOL      0.118021
     91 H39        -6.3320   -5.8690    1.0520 hn        1 MOL      0.313329
     92 H40        -7.3410   -5.0300   -0.1290 hn        1 MOL      0.313329
     93 N9         -3.4880   -2.2740   -1.9110 n         1 MOL     -0.263397
     94 C30        -3.9250   -1.7330   -3.2200 c3        1 MOL      0.079381
     95 C31        -5.3540   -1.1440   -3.3570 c         1 MOL      0.312882
     96 O16        -5.6490   -0.5560   -4.4360 o         1 MOL     -0.559953
     97 C32        -2.8350   -0.7860   -3.7720 c3        1 MOL      0.070596
     98 C33        -1.4560   -1.4690   -3.9630 c3        1 MOL     -0.135555
     99 C34        -2.5720    0.3590   -2.7360 c3        1 MOL     -0.135555
    100 H41        -3.4010   -1.5510   -1.2170 hn        1 MOL      0.127255
    101 H42        -3.9570   -2.5390   -3.9580 h1        1 MOL      0.069463
    102 H43        -3.1350   -0.3550   -4.7190 hc        1 MOL      0.018797
    103 H44        -0.7140   -0.6830   -4.0980 hc        1 MOL      0.039831
    104 H45        -1.1960   -2.0080   -3.0500 hc        1 MOL      0.039831
    105 H46        -1.3690   -2.0540   -4.8790 hc        1 MOL      0.039831
    106 H47        -2.1830    0.0120   -1.7810 hc        1 MOL      0.039831
    107 H48        -1.8690    1.0780   -3.1670 hc        1 MOL      0.039831
    108 H49        -3.4870    0.9380   -2.6290 hc        1 MOL      0.039831
    109 N10        -6.1940   -1.2710   -2.3750 n         1 MOL     -0.002981
    110 C35        -7.4670   -0.4870   -2.2040 c3        1 MOL     -0.006022
    111 C36        -7.4490    0.8120   -1.3420 c         1 MOL      0.503319
    112 O17        -8.5370    1.4450   -1.3020 o         1 MOL     -0.538842
    113 C37        -8.4420   -1.3970   -1.5530 c3        1 MOL      0.033645
    114 C38        -8.7410   -2.6920   -2.2790 c         1 MOL      0.594419
    115 N11        -8.9280   -2.6520   -3.5680 n         1 MOL     -0.773348
    116 O18        -8.8200   -3.7450   -1.6920 o         1 MOL     -0.571541
    117 H50        -6.0330   -1.9660   -1.6540 hn        1 MOL      0.010555
    118 H51        -7.8610   -0.1310   -3.1600 h1        1 MOL      0.061092
    119 H52        -9.3980   -0.8830   -1.4520 hc        1 MOL     -0.004894
    120 H53        -8.0770   -1.5880   -0.5400 hc        1 MOL     -0.004894
    121 H54        -8.8140   -1.9450   -4.2820 hn        1 MOL      0.354413
    122 H55        -9.1300   -3.5880   -3.8970 hn        1 MOL      0.354413
    123 N12        -6.3450    1.1970   -0.6300 n         1 MOL     -0.584576
    124 C39        -6.3300    2.2820    0.3150 c3        1 MOL      0.509185
    125 C40        -4.9070    2.8830    0.6210 c         1 MOL      0.301651
    126 O19        -3.8870    2.3680    0.1650 o         1 MOL     -0.481166
    127 C41        -7.1310    1.9410    1.6400 c3        1 MOL     -0.376413
    128 C42        -6.7620    0.6150    2.2520 ca        1 MOL      0.089418
    129 C43        -5.7920    0.4960    3.2790 ca        1 MOL     -0.132063
    130 C44        -7.5310   -0.4930    1.8920 ca        1 MOL     -0.132063
    131 C45        -5.4740   -0.7550    3.8850 ca        1 MOL     -0.315282
    132 C46        -7.3230   -1.7080    2.6020 ca        1 MOL     -0.315282
    133 C47        -6.2830   -1.8490    3.5450 ca        1 MOL      0.399089
    134 O20        -6.1230   -3.0840    4.1400 oh        1 MOL     -0.647974
    135 H56        -5.5260    0.6020   -0.6370 hn        1 MOL      0.295933
    136 H57        -6.8630    3.1510   -0.0550 h1        1 MOL     -0.032342
    137 H58        -8.1960    2.0780    1.4660 hc        1 MOL      0.101845
    138 H59        -6.8150    2.7000    2.3690 hc        1 MOL      0.101845
    139 H60        -5.0890    1.3060    3.4220 ha        1 MOL      0.159896
    140 H61        -8.3540   -0.3850    1.2020 ha        1 MOL      0.159896
    141 H62        -4.6360   -0.8090    4.5550 ha        1 MOL      0.168593
    142 H63        -7.8950   -2.6080    2.4350 ha        1 MOL      0.168593
    143 H64        -5.6390   -2.9980    4.9610 ho        1 MOL      0.462954
    144 N13        -4.9810    3.9970    1.3050 n         1 MOL     -0.488367
    145 C48        -3.8920    4.8310    1.9470 c3        1 MOL      0.057270
    146 C49        -2.6470    5.2490    1.1330 c         1 MOL      0.217364
    147 O21        -1.9160    6.0860    1.6950 o         1 MOL     -0.452296
    148 C50        -3.4310    4.1630    3.2690 c3        1 MOL     -0.013810
    149 C51        -2.6020    2.8940    3.1060 c3        1 MOL     -0.072330
    150 C52        -2.1370    2.3190    4.4540 c         1 MOL      0.586727
    151 O22        -1.6360    3.0730    5.3760 o         1 MOL     -0.674807
    152 O23        -2.3360    1.0700    4.6810 o         1 MOL     -0.674807
    153 H65        -5.9120    4.3700    1.4090 hn        1 MOL      0.298484
    154 H66        -4.3620    5.7790    2.1780 h1        1 MOL      0.075405
    155 H67        -4.3140    3.8390    3.8170 hc        1 MOL      0.021392
    156 H68        -2.8610    4.9150    3.8150 hc        1 MOL      0.021392
    157 H69        -1.8880    2.9600    2.2810 hc        1 MOL      0.016381
    158 H70        -3.2750    2.1340    2.7200 hc        1 MOL      0.016381
    159 N14        -2.2680    4.5920    0.0160 n         1 MOL     -0.031207
    160 C53        -1.0880    4.9070   -0.8490 c3        1 MOL     -0.281989
    161 C54        -1.3300    6.0540   -1.8740 c         1 MOL      0.520144
    162 O24        -0.3890    6.6410   -2.3400 o         1 MOL     -0.511924
    163 C55        -0.5670    3.6360   -1.5340 c3        1 MOL     -0.053127
    164 C56         0.0380    2.6210   -0.4980 c3        1 MOL      0.115831
    165 C57         1.4760    2.9410   -0.0270 c         1 MOL      0.830722
    166 O25         1.7880    4.1130    0.1620 o         1 MOL     -0.715726
    167 O26         2.2530    2.0160    0.1390 o         1 MOL     -0.715726
    168 H71        -2.7240    3.7270   -0.2260 hn        1 MOL      0.201228
    169 H72        -0.3920    5.2550   -0.0830 h1        1 MOL      0.167344
    170 H73         0.1870    3.8240   -2.3150 hc        1 MOL      0.033208
    171 H74        -1.3590    3.0780   -2.0340 hc        1 MOL      0.033208
    172 H75         0.0090    1.6440   -0.9770 hc        1 MOL     -0.036467
    173 H76        -0.5180    2.5980    0.4370 hc        1 MOL     -0.036467
    174 N15        -2.5940    6.2930   -2.2070 n         1 MOL     -0.270492
    175 C58        -2.9810    7.3450   -3.1700 c3        1 MOL     -0.154880
    176 H77        -3.3230    8.2260   -2.6270 h1        1 MOL      0.077424
    177 H78        -2.1210    7.6090   -3.7860 h1        1 MOL      0.077424
    178 H79        -3.7850    6.9780   -3.8070 h1        1 MOL      0.077424
    179 H80        -3.3360    5.7170   -1.8360 hn        1 MOL      0.205207
    180 Ca1         4.6630    1.7360    1.1170 Ca        1 MOL      1.755753
    181 O27         3.9880    4.5340    1.7910 oh        1 MOL     -0.853155
    182 H81         4.4280    5.3770    1.6580 ho        1 MOL      0.414154
    183 H82         3.2310    4.5510    1.2050 ho        1 MOL      0.414154
    184 O28         2.6180    1.8670    2.9310 oh        1 MOL     -0.853155
    185 H83         2.5760    1.8470    3.8930 ho        1 MOL      0.414154
    186 H84         1.7910    2.2750    2.6680 ho        1 MOL      0.414154
    187 O29         5.7560    0.0200    2.6470 oh        1 MOL     -0.853155
    188 H85         5.7370    0.4980    3.4830 ho        1 MOL      0.414154
    189 H86         6.0200   -0.8710    2.8980 ho        1 MOL      0.414154
    190 O30         5.4740    2.8810    3.4840 oh        1 MOL     -0.853155
    191 H87         5.0740    3.7480    3.3650 ho        1 MOL      0.414154
    192 H88         5.1430    2.5830    4.3260 ho        1 MOL      0.414154
@<TRIPOS>BOND
     1    1    2 1   
     2    1    4 1   
     3    1    5 1   
     4    1    6 1   
     5    2    3 2   
     6    2    7 1   
     7    7    8 1   
     8    7   15 1   
     9    8    9 1   
    10    8   11 1   
    11    8   16 1   
    12    9   10 2   
    13    9   19 1   
    14   11   12 1   
    15   11   17 1   
    16   11   18 1   
    17   12   13 1   
    18   12   14 1   
    19   19   20 1   
    20   19   27 1   
    21   20   21 1   
    22   20   23 1   
    23   20   28 1   
    24   21   22 2   
    25   21   38 1   
    26   23   24 1   
    27   23   25 1   
    28   23   29 1   
    29   24   26 1   
    30   24   30 1   
    31   24   31 1   
    32   25   32 1   
    33   25   33 1   
    34   25   34 1   
    35   26   35 1   
    36   26   36 1   
    37   26   37 1   
    38   38   39 1   
    39   38   46 1   
    40   39   40 1   
    41   39   42 1   
    42   39   47 1   
    43   40   41 2   
    44   40   50 1   
    45   42   43 1   
    46   42   48 1   
    47   42   49 1   
    48   43   44 1   
    49   43   45 1   
    50   50   51 1   
    51   50   54 1   
    52   51   52 1   
    53   51   55 1   
    54   51   56 1   
    55   52   53 2   
    56   52   57 1   
    57   57   58 1   
    58   57   65 1   
    59   58   59 1   
    60   58   61 1   
    61   58   66 1   
    62   59   60 2   
    63   59   69 1   
    64   61   62 1   
    65   61   67 1   
    66   61   68 1   
    67   62   63 1   
    68   62   64 1   
    69   69   70 1   
    70   69   73 1   
    71   70   71 1   
    72   70   74 1   
    73   70   75 1   
    74   71   72 2   
    75   71   76 1   
    76   76   77 1   
    77   76   85 1   
    78   77   78 1   
    79   77   80 1   
    80   77   86 1   
    81   78   79 2   
    82   78   93 1   
    83   80   81 1   
    84   80   87 1   
    85   80   88 1   
    86   81   82 1   
    87   81   89 1   
    88   81   90 1   
    89   82   83 1   
    90   82   84 2   
    91   83   91 1   
    92   83   92 1   
    93   93   94 1   
    94   93  100 1   
    95   94   95 1   
    96   94   97 1   
    97   94  101 1   
    98   95   96 2   
    99   95  109 1   
   100   97   98 1   
   101   97   99 1   
   102   97  102 1   
   103   98  103 1   
   104   98  104 1   
   105   98  105 1   
   106   99  106 1   
   107   99  107 1   
   108   99  108 1   
   109  109  110 1   
   110  109  117 1   
   111  110  111 1   
   112  110  113 1   
   113  110  118 1   
   114  111  112 2   
   115  111  123 1   
   116  113  114 1   
   117  113  119 1   
   118  113  120 1   
   119  114  115 1   
   120  114  116 2   
   121  115  121 1   
   122  115  122 1   
   123  123  124 1   
   124  123  135 1   
   125  124  125 1   
   126  124  127 1   
   127  124  136 1   
   128  125  126 2   
   129  125  144 1   
   130  127  128 1   
   131  127  137 1   
   132  127  138 1   
   133  128  129 ar  
   134  128  130 ar  
   135  129  131 ar  
   136  129  139 1   
   137  130  132 ar  
   138  130  140 1   
   139  131  133 ar  
   140  131  141 1   
   141  132  133 ar  
   142  132  142 1   
   143  133  134 1   
   144  134  143 1   
   145  144  145 1   
   146  144  153 1   
   147  145  146 1   
   148  145  148 1   
   149  145  154 1   
   150  146  147 2   
   151  146  159 1   
   152  148  149 1   
   153  148  155 1   
   154  148  156 1   
   155  149  150 1   
   156  149  157 1   
   157  149  158 1   
   158  150  151 1   
   159  150  152 1   
   160  159  160 1   
   161  159  168 1   
   162  160  161 1   
   163  160  163 1   
   164  160  169 1   
   165  161  162 2   
   166  161  174 1   
   167  163  164 1   
   168  163  170 1   
   169  163  171 1   
   170  164  165 1   
   171  164  172 1   
   172  164  173 1   
   173  165  166 1   
   174  165  167 1   
   175  174  175 1   
   176  174  179 1   
   177  175  176 1   
   178  175  177 1   
   179  175  178 1   
   180  181  182 1   
   181  181  183 1   
   182  184  185 1   
   183  184  186 1   
   184  187  188 1   
   185  187  189 1   
   186  190  191 1   
   187  190  192 1   
@<TRIPOS>SUBSTRUCTURE
     1 MOL         1 TEMP              0 ****  ****    0 ROOT
