@<TRIPOS>MOLECULE
MOL
  192   187     1     0     0
SMALL
resp


@<TRIPOS>ATOM
      1 C1         11.7190    5.4390   -2.7210 c3        1 MOL     -0.364680
      2 C2         11.5490    4.3410   -1.6660 c         1 MOL      0.649894
      3 O1         12.3040    3.3630   -1.6740 o         1 MOL     -0.587289
      4 H1         12.2100    5.0230   -3.6010 hc        1 MOL      0.097066
      5 H2         10.7410    5.8300   -3.0010 hc        1 MOL      0.097066
      6 H3         12.3290    6.2460   -2.3120 hc        1 MOL      0.097066
      7 N1         10.6330    4.5270   -0.7220 n         1 MOL     -0.140074
      8 C3         10.3420    3.5400    0.3420 c3        1 MOL     -0.632554
      9 C4          9.2380    2.5340   -0.0360 c         1 MOL      0.634429
     10 O2          8.1720    2.9290   -0.5430 o         1 MOL     -0.648475
     11 C5         10.0570    4.1480    1.7340 c3        1 MOL      0.173197
     12 C6          8.9260    5.1290    1.7760 c         1 MOL      0.807173
     13 O3          8.3140    5.5450    0.7200 o         1 MOL     -0.768734
     14 O4          8.5960    5.6910    2.8800 o         1 MOL     -0.768734
     15 H4         10.1510    5.4060   -0.6810 hn        1 MOL      0.131513
     16 H5         11.2190    2.8770    0.3940 h1        1 MOL      0.193450
     17 H6         10.9500    4.7090    1.9790 hc        1 MOL      0.047356
     18 H7          9.9590    3.4400    2.5550 hc        1 MOL      0.047356
     19 N2          9.4240    1.2080    0.2810 n         1 MOL     -0.378086
     20 C7          8.7150    0.0210   -0.2450 c3        1 MOL      0.024514
     21 C8          7.6970   -0.4170    0.8100 c         1 MOL      0.509304
     22 O5          7.9950   -1.1520    1.7620 o         1 MOL     -0.536574
     23 C9          9.6830   -1.1070   -0.4780 c3        1 MOL     -0.332818
     24 C10         9.0490   -2.3760   -1.0980 c3        1 MOL      0.002938
     25 C11         8.1360   -2.1230   -2.2760 c3        1 MOL     -0.067112
     26 C12         7.5620   -3.4590   -2.8850 c3        1 MOL     -0.120612
     27 N3          6.5120   -3.1650   -3.8850 n4        1 MOL     -0.202602
     28 H8         10.2390    1.0410    0.8550 hn        1 MOL      0.291314
     29 H9          8.1520    0.4320   -1.0850 h1        1 MOL      0.093763
     30 H10        10.3490   -1.2290    0.3700 hc        1 MOL      0.140427
     31 H11        10.5180   -0.8580   -1.1380 hc        1 MOL      0.140427
     32 H12         8.4760   -2.8740   -0.3200 hc        1 MOL      0.052693
     33 H13         9.8220   -3.0580   -1.4660 hc        1 MOL      0.052693
     34 H14         8.9090   -1.6960   -2.9210 hc        1 MOL      0.032469
     35 H15         7.3320   -1.4790   -1.9440 hc        1 MOL      0.032469
     36 H16         7.0280   -3.9830   -2.0920 hx        1 MOL      0.134421
     37 H17         8.3480   -4.0640   -3.3490 hx        1 MOL      0.134421
     38 H18         6.8400   -2.7350   -4.7360 hn        1 MOL      0.273897
     39 H19         6.0250   -3.9900   -4.2150 hn        1 MOL      0.273897
     40 H20         5.8000   -2.5800   -3.4720 hn        1 MOL      0.273897
     41 N4          6.4610    0.0370    0.6290 n         1 MOL     -0.131405
     42 C13         5.2950   -0.3090    1.5350 c3        1 MOL     -0.074984
     43 C14         4.0540   -0.3140    0.6250 c         1 MOL      0.425778
     44 O6          4.0870    0.0560   -0.5140 o         1 MOL     -0.542612
     45 C15         5.1720    0.8050    2.6250 c3        1 MOL     -0.164035
     46 C16         5.6410    2.2310    2.2160 c         1 MOL      0.682638
     47 O7          4.9460    2.9180    1.3820 o         1 MOL     -0.677829
     48 O8          6.6930    2.6410    2.7030 o         1 MOL     -0.677829
     49 H21         6.2700    0.7880   -0.0230 hn        1 MOL      0.126086
     50 H22         5.4130   -1.2530    2.0570 h1        1 MOL      0.130060
     51 H23         5.8000    0.4250    3.4330 hc        1 MOL      0.064354
     52 H24         4.1100    0.8540    2.8800 hc        1 MOL      0.064354
     53 N5          2.9690   -0.9110    1.0880 n         1 MOL     -0.346915
     54 C17         2.8700   -1.7260    2.2990 c3        1 MOL     -0.037719
     55 C18         3.0300   -3.2000    2.0730 c         1 MOL      0.463969
     56 O9          3.3840   -3.5480    0.9460 o         1 MOL     -0.556407
     57 H25         2.2180   -0.9880    0.4240 hn        1 MOL      0.252721
     58 H26         1.8770   -1.6740    2.7480 h1        1 MOL      0.084760
     59 H27         3.5140   -1.3010    3.0620 h1        1 MOL      0.084760
     60 N6          2.6790   -4.1370    3.0340 n         1 MOL     -0.263434
     61 C19         2.8910   -5.5890    2.7920 c3        1 MOL      0.021530
     62 C20         1.7370   -6.1990    1.9380 c         1 MOL      0.451142
     63 O10         2.0750   -7.2010    1.2120 o         1 MOL     -0.536504
     64 C21         2.9550   -6.3410    4.1040 c3        1 MOL     -0.367569
     65 C22         1.9430   -5.9270    5.2070 c         1 MOL      0.659387
     66 O11         1.0090   -6.7340    5.5120 o         1 MOL     -0.655558
     67 O12         1.9450   -4.7440    5.6650 o         1 MOL     -0.655558
     68 H28         2.4080   -3.8660    3.9660 hn        1 MOL      0.169847
     69 H29         3.8180   -5.7920    2.2530 h1        1 MOL      0.086615
     70 H30         3.9730   -6.1470    4.4290 hc        1 MOL      0.108368
     71 H31         2.8080   -7.4040    3.9370 hc        1 MOL      0.108368
     72 N7          0.5300   -5.6550    2.0560 n         1 MOL     -0.161412
     73 C23        -0.6360   -6.0770    1.1990 c3        1 MOL     -0.212562
     74 C24        -0.4090   -5.6180   -0.2570 c         1 MOL      0.493208
     75 O13        -1.0100   -6.1790   -1.2130 o         1 MOL     -0.536943
     76 H32         0.4050   -4.7800    2.5560 hn        1 MOL      0.242340
     77 H33        -1.5310   -5.6100    1.6130 h1        1 MOL      0.123903
     78 H34        -0.6590   -7.1620    1.1510 h1        1 MOL      0.123903
     79 N8          0.4090   -4.5480   -0.4110 n         1 MOL     -0.055447
     80 C25         0.6320   -3.8090   -1.6590 c3        1 MOL     -0.124700
     81 C26         0.3590   -2.2870   -1.4460 c         1 MOL      0.396813
     82 O14         0.6840   -1.9380   -0.3150 o         1 MOL     -0.445391
     83 C27         2.0360   -4.0880   -2.2960 c3        1 MOL      0.188530
     84 C28         2.5870   -5.4670   -2.0710 c3        1 MOL     -0.392404
     85 O15         1.9640   -3.7850   -3.6700 oh        1 MOL     -0.648045
     86 H35         0.9160   -4.1160    0.3430 hn        1 MOL      0.091394
     87 H36        -0.0600   -4.0920   -2.4510 h1        1 MOL      0.034607
     88 H37         2.7630   -3.3290   -1.9890 h1        1 MOL      0.147027
     89 H38         1.3930   -4.5010   -3.9460 ho        1 MOL      0.399123
     90 H39         1.9510   -6.2930   -2.3930 hc        1 MOL      0.110007
     91 H40         3.5600   -5.5250   -2.5430 hc        1 MOL      0.110007
     92 H41         2.8490   -5.6450   -1.0350 hc        1 MOL      0.110007
     93 N9         -0.0770   -1.5820   -2.4680 n         1 MOL     -0.078178
     94 C29        -0.4940   -0.1990   -2.3620 c3        1 MOL     -0.166552
     95 C30        -1.8620   -0.0580   -1.5690 c         1 MOL      0.537589
     96 O16        -1.9490    0.8850   -0.7750 o         1 MOL     -0.525606
     97 C31        -0.4820    0.4920   -3.7690 c3        1 MOL      0.063353
     98 C32         0.9870    0.5260   -4.4440 c3        1 MOL      0.181175
     99 C33        -0.8170    1.9610   -3.6590 c3        1 MOL     -0.486562
    100 C34         2.1540    0.7430   -3.4570 c3        1 MOL     -0.494585
    101 H42        -0.1200   -2.0730   -3.3510 hn        1 MOL      0.213439
    102 H43         0.3320    0.3250   -1.8830 h1        1 MOL      0.076190
    103 H44        -1.2110    0.0920   -4.4610 hc        1 MOL      0.039123
    104 H45         0.9840    1.2650   -5.2460 hc        1 MOL     -0.029692
    105 H46         1.0830   -0.4130   -4.9940 hc        1 MOL     -0.029692
    106 H47        -1.8070    1.9820   -3.2060 hc        1 MOL      0.144794
    107 H48        -0.0810    2.5010   -3.0710 hc        1 MOL      0.144794
    108 H49        -0.7850    2.4750   -4.6160 hc        1 MOL      0.144794
    109 H50         1.9590    1.5010   -2.6940 hc        1 MOL      0.128758
    110 H51         2.4100   -0.1490   -2.8940 hc        1 MOL      0.128758
    111 H52         3.0190    1.2370   -3.8840 hc        1 MOL      0.128758
    112 N10        -2.7070   -1.0530   -1.6680 n         1 MOL     -0.298430
    113 C35        -3.9360   -1.2310   -0.8270 c3        1 MOL     -0.031185
    114 C36        -5.1560   -1.8340   -1.5560 c         1 MOL      0.586119
    115 O17        -4.8920   -2.5610   -2.4870 o         1 MOL     -0.501556
    116 C37        -3.6510   -2.1830    0.3490 c3        1 MOL      0.356333
    117 C38        -2.9690   -3.4890   -0.0510 c3        1 MOL     -0.277001
    118 O18        -2.8270   -1.6370    1.2300 oh        1 MOL     -0.545362
    119 H53        -2.4740   -1.6800   -2.4200 hn        1 MOL      0.177112
    120 H54        -4.2410   -0.2620   -0.4190 h1        1 MOL      0.051664
    121 H55        -4.6010   -2.4530    0.8090 h1        1 MOL     -0.027456
    122 H56        -3.4230   -1.0880    1.7360 ho        1 MOL      0.375843
    123 H57        -3.1790   -4.1740    0.7750 hc        1 MOL      0.067695
    124 H58        -3.4330   -3.9290   -0.9400 hc        1 MOL      0.067695
    125 H59        -1.9020   -3.5320   -0.2700 hc        1 MOL      0.067695
    126 N11        -6.4170   -1.5400   -1.1850 n         1 MOL     -0.625277
    127 C39        -7.6110   -2.0430   -1.8870 c3        1 MOL      0.073355
    128 C40        -8.7450   -0.9830   -1.8970 c         1 MOL      0.660969
    129 O19        -9.3560   -0.8130   -2.9450 o         1 MOL     -0.565955
    130 C41        -8.1110   -3.4150   -1.2980 c3        1 MOL      0.209657
    131 C42        -9.1610   -4.0210   -2.1980 c3        1 MOL     -0.335618
    132 O20        -8.7160   -3.1340    0.0000 oh        1 MOL     -0.567668
    133 H60        -6.5230   -0.9370   -0.3750 hn        1 MOL      0.294373
    134 H61        -7.4420   -2.1810   -2.9610 h1        1 MOL      0.087299
    135 H62        -7.2390   -4.0740   -1.4230 h1        1 MOL      0.057922
    136 H63        -8.0410   -3.2500    0.6710 ho        1 MOL      0.375464
    137 H64        -8.7750   -4.0970   -3.2170 hc        1 MOL      0.101011
    138 H65        -9.4840   -4.9820   -1.7970 hc        1 MOL      0.101011
    139 H66       -10.0890   -3.4620   -2.3720 hc        1 MOL      0.101011
    140 N12        -8.8880   -0.2710   -0.7750 n         1 MOL     -0.508518
    141 C43        -9.8860    0.7860   -0.4970 c3        1 MOL     -0.104601
    142 C44        -9.4650    1.7050    0.6420 c         1 MOL      0.575151
    143 O21        -8.9820    1.2300    1.7150 o         1 MOL     -0.527357
    144 C45       -11.1980    0.1140   -0.0860 c3        1 MOL      0.038419
    145 C46       -12.4280    1.0600   -0.0220 c3        1 MOL     -0.161706
    146 C47       -13.6520    0.3330    0.6210 c3        1 MOL      0.075146
    147 C48       -14.9180    1.1110    0.5050 c3        1 MOL      0.173220
    148 N13       -16.0290    0.2250    0.8960 n4        1 MOL     -0.433055
    149 H67        -8.3270   -0.5440    0.0140 hn        1 MOL      0.295601
    150 H68       -10.0150    1.5200   -1.2930 h1        1 MOL      0.102630
    151 H69       -10.9490   -0.4310    0.8190 hc        1 MOL      0.045836
    152 H70       -11.4990   -0.7070   -0.7400 hc        1 MOL      0.045836
    153 H71       -12.6340    1.4000   -1.0420 hc        1 MOL      0.032599
    154 H72       -12.0850    1.8670    0.6200 hc        1 MOL      0.032599
    155 H73       -13.4960    0.1770    1.6860 hc        1 MOL      0.003068
    156 H74       -13.7790   -0.6370    0.1480 hc        1 MOL      0.003068
    157 H75       -14.9980    1.5200   -0.5060 hx        1 MOL      0.048943
    158 H76       -14.9190    2.0090    1.1220 hx        1 MOL      0.048943
    159 H77       -15.9440   -0.1920    1.8040 hn        1 MOL      0.307846
    160 H78       -16.8810    0.7650    0.9390 hn        1 MOL      0.307846
    161 H79       -16.0490   -0.4750    0.1710 hn        1 MOL      0.307846
    162 N14        -9.5650    2.9750    0.3660 n         1 MOL     -0.399571
    163 C49        -9.0570    3.9110    1.3430 c3        1 MOL      0.200370
    164 C50        -7.5270    3.7970    1.5870 c         1 MOL      0.391755
    165 O22        -7.1180    3.7070    2.6880 o         1 MOL     -0.527558
    166 C51        -9.4580    5.3230    0.9690 c3        1 MOL     -0.100147
    167 C52       -10.7560    5.7240    1.6520 c3        1 MOL     -0.218023
    168 C53       -11.0790    7.0690    1.1390 c         1 MOL      0.716883
    169 O23       -11.6020    7.1630    0.0570 o         1 MOL     -0.685127
    170 O24       -10.6490    7.9920    1.8510 o         1 MOL     -0.685127
    171 H80        -9.9420    3.2820   -0.5150 hn        1 MOL      0.272480
    172 H81        -9.4780    3.5950    2.2970 h1        1 MOL      0.044005
    173 H82        -9.4670    5.4660   -0.1070 hc        1 MOL      0.086861
    174 H83        -8.6410    5.9710    1.2930 hc        1 MOL      0.086861
    175 H84       -10.6980    5.6360    2.7380 hc        1 MOL      0.027675
    176 H85       -11.4850    4.9700    1.3590 hc        1 MOL      0.027675
    177 N15        -6.6670    3.9250    0.6470 n         1 MOL     -0.382036
    178 C54        -6.8650    4.3580   -0.8020 c3        1 MOL     -0.027652
    179 H86        -6.2230    3.7610   -1.4500 h1        1 MOL      0.042186
    180 H87        -7.9060    4.2090   -1.0870 h1        1 MOL      0.042186
    181 H88        -6.6060    5.4120   -0.9060 h1        1 MOL      0.042186
    182 H89        -5.7110    3.9510    0.9500 hn        1 MOL      0.313605
    183 Ca1         6.1620    4.6530   -0.1460 Ca        1 MOL      1.765548
    184 O25         5.4850    2.4130   -1.6830 oh        1 MOL     -0.915763
    185 H90         4.6940    1.8650   -1.6820 ho        1 MOL      0.444068
    186 H91         5.8640    2.2840   -2.5540 ho        1 MOL      0.444068
    187 O26         3.4890    5.1080   -0.6430 oh        1 MOL     -0.915763
    188 H92         2.8960    4.3650   -0.5090 ho        1 MOL      0.444068
    189 H93         2.9660    5.8730   -0.3830 ho        1 MOL      0.444068
    190 O27         5.6320    5.7820    2.1580 oh        1 MOL     -0.915763
    191 H94         6.4970    5.8480    2.5690 ho        1 MOL      0.444068
    192 H95         5.0810    6.3720    2.6700 ho        1 MOL      0.444068
@<TRIPOS>BOND
     1    1    2 1   
     2    1    4 1   
     3    1    5 1   
     4    1    6 1   
     5    2    3 2   
     6    2    7 1   
     7    7    8 1   
     8    7   15 1   
     9    8    9 1   
    10    8   11 1   
    11    8   16 1   
    12    9   10 2   
    13    9   19 1   
    14   11   12 1   
    15   11   17 1   
    16   11   18 1   
    17   12   13 1   
    18   12   14 1   
    19   19   20 1   
    20   19   28 1   
    21   20   21 1   
    22   20   23 1   
    23   20   29 1   
    24   21   22 2   
    25   21   41 1   
    26   23   24 1   
    27   23   30 1   
    28   23   31 1   
    29   24   25 1   
    30   24   32 1   
    31   24   33 1   
    32   25   26 1   
    33   25   34 1   
    34   25   35 1   
    35   26   27 1   
    36   26   36 1   
    37   26   37 1   
    38   27   38 1   
    39   27   39 1   
    40   27   40 1   
    41   41   42 1   
    42   41   49 1   
    43   42   43 1   
    44   42   45 1   
    45   42   50 1   
    46   43   44 2   
    47   43   53 1   
    48   45   46 1   
    49   45   51 1   
    50   45   52 1   
    51   46   47 1   
    52   46   48 1   
    53   53   54 1   
    54   53   57 1   
    55   54   55 1   
    56   54   58 1   
    57   54   59 1   
    58   55   56 2   
    59   55   60 1   
    60   60   61 1   
    61   60   68 1   
    62   61   62 1   
    63   61   64 1   
    64   61   69 1   
    65   62   63 2   
    66   62   72 1   
    67   64   65 1   
    68   64   70 1   
    69   64   71 1   
    70   65   66 1   
    71   65   67 1   
    72   72   73 1   
    73   72   76 1   
    74   73   74 1   
    75   73   77 1   
    76   73   78 1   
    77   74   75 2   
    78   74   79 1   
    79   79   80 1   
    80   79   86 1   
    81   80   81 1   
    82   80   83 1   
    83   80   87 1   
    84   81   82 2   
    85   81   93 1   
    86   83   84 1   
    87   83   85 1   
    88   83   88 1   
    89   84   90 1   
    90   84   91 1   
    91   84   92 1   
    92   85   89 1   
    93   93   94 1   
    94   93  101 1   
    95   94   95 1   
    96   94   97 1   
    97   94  102 1   
    98   95   96 2   
    99   95  112 1   
   100   97   98 1   
   101   97   99 1   
   102   97  103 1   
   103   98  100 1   
   104   98  104 1   
   105   98  105 1   
   106   99  106 1   
   107   99  107 1   
   108   99  108 1   
   109  100  109 1   
   110  100  110 1   
   111  100  111 1   
   112  112  113 1   
   113  112  119 1   
   114  113  114 1   
   115  113  116 1   
   116  113  120 1   
   117  114  115 2   
   118  114  126 1   
   119  116  117 1   
   120  116  118 1   
   121  116  121 1   
   122  117  123 1   
   123  117  124 1   
   124  117  125 1   
   125  118  122 1   
   126  126  127 1   
   127  126  133 1   
   128  127  128 1   
   129  127  130 1   
   130  127  134 1   
   131  128  129 2   
   132  128  140 1   
   133  130  131 1   
   134  130  132 1   
   135  130  135 1   
   136  131  137 1   
   137  131  138 1   
   138  131  139 1   
   139  132  136 1   
   140  140  141 1   
   141  140  149 1   
   142  141  142 1   
   143  141  144 1   
   144  141  150 1   
   145  142  143 2   
   146  142  162 1   
   147  144  145 1   
   148  144  151 1   
   149  144  152 1   
   150  145  146 1   
   151  145  153 1   
   152  145  154 1   
   153  146  147 1   
   154  146  155 1   
   155  146  156 1   
   156  147  148 1   
   157  147  157 1   
   158  147  158 1   
   159  148  159 1   
   160  148  160 1   
   161  148  161 1   
   162  162  163 1   
   163  162  171 1   
   164  163  164 1   
   165  163  166 1   
   166  163  172 1   
   167  164  165 2   
   168  164  177 1   
   169  166  167 1   
   170  166  173 1   
   171  166  174 1   
   172  167  168 1   
   173  167  175 1   
   174  167  176 1   
   175  168  169 1   
   176  168  170 1   
   177  177  178 1   
   178  177  182 1   
   179  178  179 1   
   180  178  180 1   
   181  178  181 1   
   182  184  185 1   
   183  184  186 1   
   184  187  188 1   
   185  187  189 1   
   186  190  191 1   
   187  190  192 1   
@<TRIPOS>SUBSTRUCTURE
     1 MOL         1 TEMP              0 ****  ****    0 ROOT
