@<TRIPOS>MOLECULE
MOL
  189   185     1     0     0
SMALL
resp


@<TRIPOS>ATOM
      1 C1          4.4200    4.1100   -3.1470 c3        1 MOL     -0.407777
      2 C2          5.2390    3.1910   -2.1730 c         1 MOL      0.666669
      3 O1          4.8240    2.8740   -1.0510 o         1 MOL     -0.595991
      4 H1          3.3770    3.7920   -3.1560 hc        1 MOL      0.112451
      5 H2          4.4800    5.1440   -2.8080 hc        1 MOL      0.112451
      6 H3          4.8310    4.0330   -4.1530 hc        1 MOL      0.112451
      7 N1          6.4490    2.8370   -2.6020 n         1 MOL     -0.548545
      8 C3          7.2680    1.7840   -1.9150 c3        1 MOL      0.110950
      9 C4          6.4350    0.5450   -1.6060 c         1 MOL      0.687639
     10 O2          6.0530    0.2360   -0.4930 o         1 MOL     -0.632036
     11 C5          8.1300    2.2120   -0.6260 c3        1 MOL     -0.131281
     12 C6          7.6550    3.3730    0.1860 c         1 MOL      0.788075
     13 O3          6.8500    3.0930    1.0590 o         1 MOL     -0.758448
     14 O4          8.1200    4.5140   -0.0450 o         1 MOL     -0.758448
     15 H4          6.7810    3.1100   -3.5060 hn        1 MOL      0.311615
     16 H5          7.9550    1.3990   -2.6640 h1        1 MOL      0.045149
     17 H6          9.1420    2.3510   -1.0190 hc        1 MOL      0.021626
     18 H7          8.1550    1.4160    0.1250 hc        1 MOL      0.021626
     19 N2          6.1240   -0.1600   -2.7670 n         1 MOL     -0.752474
     20 C7          5.2970   -1.4350   -2.9310 c3        1 MOL      0.413716
     21 C8          5.8750   -2.6650   -2.2140 c         1 MOL      0.242670
     22 O5          6.0800   -3.6530   -2.9110 o         1 MOL     -0.516920
     23 C9          3.7790   -1.1290   -2.7430 c3        1 MOL      0.136135
     24 C10         2.8610   -2.3260   -3.0840 c3        1 MOL      0.032601
     25 C11         3.3630    0.0630   -3.5690 c3        1 MOL     -0.294131
     26 C12         2.7640   -2.7660   -4.5820 c3        1 MOL     -0.496331
     27 H8          6.3980    0.2790   -3.6330 hn        1 MOL      0.305258
     28 H9          5.3840   -1.6510   -4.0050 h1        1 MOL     -0.000399
     29 H10         3.7350   -0.8350   -1.6930 hc        1 MOL     -0.075847
     30 H11         1.8250   -2.2180   -2.7760 hc        1 MOL      0.066564
     31 H12         3.2930   -3.2160   -2.6200 hc        1 MOL      0.066564
     32 H13         2.2830    0.1870   -3.5600 hc        1 MOL      0.053086
     33 H14         3.7130    1.0070   -3.1360 hc        1 MOL      0.053086
     34 H15         3.6920   -0.0790   -4.5940 hc        1 MOL      0.053086
     35 H16         2.0510   -3.5910   -4.6380 hc        1 MOL      0.114515
     36 H17         2.2590   -1.9280   -5.0660 hc        1 MOL      0.114515
     37 H18         3.7530   -3.0350   -4.9250 hc        1 MOL      0.114515
     38 N3          6.1950   -2.5790   -0.8800 n         1 MOL     -0.154676
     39 C13         6.7930   -3.7200   -0.1550 c3        1 MOL      0.235958
     40 C14         6.0150   -5.0690   -0.0910 c         1 MOL      0.365034
     41 O6          6.6130   -6.1690   -0.3010 o         1 MOL     -0.557519
     42 C15         7.2460   -3.2850    1.2320 c3        1 MOL     -0.214291
     43 C16         8.2660   -2.2040    1.2520 c         1 MOL      0.868212
     44 O7          8.3820   -1.5530    2.3700 o         1 MOL     -0.779619
     45 O8          8.9860   -1.9980    0.2780 o         1 MOL     -0.779619
     46 H19         6.1650   -1.6340   -0.5150 hn        1 MOL      0.245394
     47 H20         7.7310   -4.0310   -0.6260 h1        1 MOL      0.010511
     48 H21         7.8140   -4.0760    1.7160 hc        1 MOL      0.025495
     49 H22         6.3970   -2.9310    1.8160 hc        1 MOL      0.025495
     50 N4          4.6900   -5.0450    0.2110 n         1 MOL     -0.328935
     51 C17         3.8240   -3.9290    0.5510 c3        1 MOL      0.052841
     52 C18         2.5090   -4.3540    1.1680 c         1 MOL      0.576820
     53 O9          2.0070   -5.4740    0.8650 o         1 MOL     -0.572955
     54 H23         4.2000   -5.9330    0.2930 hn        1 MOL      0.238094
     55 H24         3.6660   -3.2730   -0.3050 h1        1 MOL     -0.006799
     56 H25         4.3670   -3.3240    1.2740 h1        1 MOL     -0.006799
     57 N5          1.9230   -3.6200    2.1230 n         1 MOL     -0.577978
     58 C19         2.2480   -2.2740    2.6790 c3        1 MOL      0.382412
     59 C20         2.2970   -1.1510    1.6390 c         1 MOL      0.395421
     60 O10         3.3400   -0.6120    1.2820 o         1 MOL     -0.578504
     61 C21         3.4020   -2.3230    3.6390 c3        1 MOL     -0.566786
     62 C22         3.6770   -0.9380    4.2890 c         1 MOL      0.908000
     63 O11         2.7990   -0.1140    4.4380 o         1 MOL     -0.747428
     64 O12         4.8780   -0.7760    4.6400 o         1 MOL     -0.747428
     65 H26         1.3350   -4.1460    2.7590 hn        1 MOL      0.293586
     66 H27         1.5060   -1.9510    3.4020 h1        1 MOL      0.038718
     67 H28         4.3180   -2.5460    3.1140 hc        1 MOL      0.130049
     68 H29         3.1690   -2.9890    4.4720 hc        1 MOL      0.130049
     69 N6          1.2270   -0.7300    0.9710 n         1 MOL     -0.266609
     70 C23        -0.1430   -1.2290    1.1110 c3        1 MOL     -0.129673
     71 C24        -0.4900   -2.4000    0.2430 c         1 MOL      0.573137
     72 O13         0.2730   -2.8710   -0.6340 o         1 MOL     -0.504323
     73 H30         1.3990    0.1230    0.4690 hn        1 MOL      0.220828
     74 H31        -0.8450   -0.4220    0.9090 h1        1 MOL      0.092115
     75 H32        -0.2800   -1.5600    2.1410 h1        1 MOL      0.092115
     76 N7         -1.7650   -2.8330    0.4240 n         1 MOL     -0.563390
     77 C25        -2.4570   -3.9280   -0.3480 c3        1 MOL      0.085373
     78 C26        -3.3060   -3.5450   -1.5520 c         1 MOL      0.390758
     79 O14        -3.5250   -4.4810   -2.3900 o         1 MOL     -0.545743
     80 C27        -3.2830   -4.8150    0.5760 c3        1 MOL      0.249478
     81 C28        -4.2800   -4.1630    1.4870 c3        1 MOL     -0.658119
     82 C29        -5.5510   -3.7290    0.7680 c         1 MOL      0.463408
     83 N8         -6.3690   -4.6760    0.3940 n         1 MOL     -0.571654
     84 O15        -5.7020   -2.5780    0.3330 o         1 MOL     -0.415283
     85 H33        -2.3340   -2.2590    1.0220 hn        1 MOL      0.306171
     86 H34        -1.7510   -4.6120   -0.8280 h1        1 MOL      0.117113
     87 H35        -2.6130   -5.4280    1.1710 hc        1 MOL     -0.028664
     88 H36        -3.7920   -5.5110   -0.0940 hc        1 MOL     -0.028664
     89 H37        -3.8560   -3.3180    2.0380 hc        1 MOL      0.213112
     90 H38        -4.4760   -4.9780    2.1790 hc        1 MOL      0.213112
     91 H39        -6.1920   -5.5770    0.8100 hn        1 MOL      0.323779
     92 H40        -7.1750   -4.4280   -0.1700 hn        1 MOL      0.323779
     93 N9         -3.7020   -2.2960   -1.6630 n         1 MOL     -0.122279
     94 C30        -4.0370   -1.7240   -2.9380 c3        1 MOL     -0.200081
     95 C31        -5.3750   -1.0230   -3.1090 c         1 MOL      0.479293
     96 O16        -5.6590   -0.3470   -4.0960 o         1 MOL     -0.517447
     97 C32        -2.9460   -0.9110   -3.5660 c3        1 MOL      0.057486
     98 C33        -1.5860   -1.5520   -3.6000 c3        1 MOL     -0.079726
     99 C34        -2.7670    0.5160   -2.8760 c3        1 MOL     -0.079726
    100 H41        -3.6230   -1.6460   -0.9000 hn        1 MOL      0.178648
    101 H42        -4.0220   -2.5320   -3.6700 h1        1 MOL      0.121501
    102 H43        -3.0860   -0.7060   -4.6330 hc        1 MOL      0.027951
    103 H44        -1.0070   -1.1720   -4.4320 hc        1 MOL      0.024218
    104 H45        -1.1080   -1.4690   -2.6270 hc        1 MOL      0.024218
    105 H46        -1.6280   -2.6280   -3.7760 hc        1 MOL      0.024218
    106 H47        -2.6150    0.3060   -1.8100 hc        1 MOL      0.024218
    107 H48        -1.9150    1.0730   -3.2650 hc        1 MOL      0.024218
    108 H49        -3.7000    1.0620   -2.9930 hc        1 MOL      0.024218
    109 N10        -6.2120   -1.2670   -2.0820 n         1 MOL     -0.350256
    110 C35        -7.5510   -0.7300   -2.0580 c3        1 MOL     -0.053455
    111 C36        -7.4760    0.6940   -1.4780 c         1 MOL      0.563129
    112 O17        -8.3970    1.4610   -1.6610 o         1 MOL     -0.574154
    113 C37        -8.5500   -1.5120   -1.1420 c3        1 MOL     -0.094860
    114 C38        -8.7640   -3.0020   -1.5460 c         1 MOL      0.590864
    115 N11        -8.8360   -3.3580   -2.8200 n         1 MOL     -0.775519
    116 O18        -8.8270   -3.8480   -0.6200 o         1 MOL     -0.569590
    117 H50        -5.9620   -1.9440   -1.3750 hn        1 MOL      0.265149
    118 H51        -8.0140   -0.6700   -3.0360 h1        1 MOL      0.055403
    119 H52        -9.4870   -0.9590   -1.2230 hc        1 MOL      0.040609
    120 H53        -8.1470   -1.4700   -0.1390 hc        1 MOL      0.040609
    121 H54        -8.8810   -2.6210   -3.5130 hn        1 MOL      0.384037
    122 H55        -8.8950   -4.3360   -3.0240 hn        1 MOL      0.384037
    123 N12        -6.4150    1.0870   -0.7600 n         1 MOL     -0.271065
    124 C39        -6.3320    2.3760   -0.0430 c3        1 MOL      0.149384
    125 C40        -4.8700    2.9080    0.1340 c         1 MOL      0.247753
    126 O19        -3.9260    2.1970   -0.1950 o         1 MOL     -0.324032
    127 C41        -7.1020    2.3770    1.3140 c3        1 MOL     -0.029047
    128 C42        -7.0310    1.0400    2.0620 ca        1 MOL      0.197238
    129 C43        -8.1970    0.2880    2.2870 ca        1 MOL     -0.312065
    130 C44        -5.7640    0.6030    2.4980 ca        1 MOL     -0.312065
    131 C45        -8.0890   -0.9980    2.9220 ca        1 MOL     -0.126519
    132 C46        -5.6650   -0.6610    3.0960 ca        1 MOL     -0.126519
    133 C47        -6.8140   -1.4790    3.2200 ca        1 MOL      0.279954
    134 O20        -6.7150   -2.7810    3.7860 oh        1 MOL     -0.494124
    135 H56        -5.6050    0.4990   -0.6800 hn        1 MOL      0.194318
    136 H57        -6.7900    3.0790   -0.7290 h1        1 MOL      0.026461
    137 H58        -8.1670    2.5390    1.1420 hc        1 MOL      0.002784
    138 H59        -6.7120    3.1410    1.9880 hc        1 MOL      0.002784
    139 H60        -9.1340    0.6530    1.9020 ha        1 MOL      0.149850
    140 H61        -4.8750    1.1280    2.1910 ha        1 MOL      0.149850
    141 H62        -9.0010   -1.5520    3.0980 ha        1 MOL      0.114249
    142 H63        -4.7460   -1.1280    3.4230 ha        1 MOL      0.114249
    143 H64        -7.5760   -3.2060    3.8310 ho        1 MOL      0.324033
    144 N13        -4.7200    4.0170    0.8170 n         1 MOL     -0.373305
    145 C48        -3.5020    4.6820    1.3660 c3        1 MOL      0.008805
    146 C49        -2.3660    5.1300    0.4100 c         1 MOL      0.341875
    147 O21        -1.8370    6.2610    0.5340 o         1 MOL     -0.523703
    148 C50        -2.8870    3.8560    2.6120 c3        1 MOL     -0.059991
    149 C51        -3.8740    3.5810    3.7800 c3        1 MOL      0.084530
    150 C52        -3.1900    2.8310    4.8900 c         1 MOL      0.471267
    151 O22        -3.3410    1.5770    4.9670 o         1 MOL     -0.643383
    152 O23        -2.4010    3.5190    5.6570 o         1 MOL     -0.643383
    153 H65        -5.5780    4.4860    1.0410 hn        1 MOL      0.276257
    154 H66        -3.9370    5.5940    1.7740 h1        1 MOL      0.064788
    155 H67        -2.0760    4.3890    3.1120 hc        1 MOL      0.073034
    156 H68        -2.6460    2.8400    2.3050 hc        1 MOL      0.073034
    157 H69        -4.7770    3.0370    3.5090 hc        1 MOL     -0.044344
    158 H70        -4.2220    4.5430    4.1600 hc        1 MOL     -0.044344
    159 N14        -1.9520    4.2790   -0.5050 n         1 MOL     -0.086870
    160 C53        -0.7430    4.5250   -1.3400 c3        1 MOL     -0.205227
    161 C54        -0.9890    5.6010   -2.5080 c         1 MOL      0.467712
    162 O24        -0.0140    6.1200   -3.0360 o         1 MOL     -0.529932
    163 C55        -0.1460    3.2170   -1.9000 c3        1 MOL     -0.092991
    164 C56         0.1540    2.0650   -0.9290 c3        1 MOL      0.282581
    165 C57         1.1490    2.3990    0.2100 c         1 MOL      0.511791
    166 O25         0.7800    3.3000    1.0190 o         1 MOL     -0.632128
    167 O26         2.3040    1.9290    0.2400 o         1 MOL     -0.632128
    168 H71        -2.3050    3.3280   -0.5790 hn        1 MOL      0.093218
    169 H72         0.0030    5.0140   -0.7090 h1        1 MOL      0.186084
    170 H73         0.8140    3.4070   -2.3730 hc        1 MOL      0.021379
    171 H74        -0.8660    2.8040   -2.5970 hc        1 MOL      0.021379
    172 H75         0.4070    1.1470   -1.4630 hc        1 MOL     -0.067013
    173 H76        -0.8200    1.8200   -0.4860 hc        1 MOL     -0.067013
    174 N15        -2.2560    5.9540   -2.7010 n         1 MOL     -0.186039
    175 C58        -2.6860    7.0000   -3.6520 c3        1 MOL     -0.322603
    176 H77        -3.7700    6.9650   -3.7630 h1        1 MOL      0.120053
    177 H78        -2.3920    7.9780   -3.2740 h1        1 MOL      0.120053
    178 H79        -2.2170    6.8260   -4.6200 h1        1 MOL      0.120053
    179 H80        -2.9060    5.4870   -2.0850 hn        1 MOL      0.205284
    180 Ca1         4.7080    1.8420    1.2330 Ca        1 MOL      1.811855
    181 O27         3.9840    4.6220    1.1950 oh        1 MOL     -0.927785
    182 H81         3.1360    5.0730    1.2620 ho        1 MOL      0.444171
    183 H82         4.3820    4.9800    0.3990 ho        1 MOL      0.444171
    184 O28         3.5170    2.3560    3.6950 oh        1 MOL     -0.927785
    185 H83         2.8870    1.6950    3.9830 ho        1 MOL      0.444171
    186 H84         3.1630    3.1890    4.0190 ho        1 MOL      0.444171
    187 O29         6.4550    0.2890    2.8310 oh        1 MOL     -0.927785
    188 H85         6.0300   -0.1150    3.5810 ho        1 MOL      0.444171
    189 H86         7.3200   -0.1200    2.7910 ho        1 MOL      0.444171
@<TRIPOS>BOND
     1    1    2 1   
     2    1    4 1   
     3    1    5 1   
     4    1    6 1   
     5    2    3 2   
     6    2    7 1   
     7    7    8 1   
     8    7   15 1   
     9    8    9 1   
    10    8   11 1   
    11    8   16 1   
    12    9   10 2   
    13    9   19 1   
    14   11   12 1   
    15   11   17 1   
    16   11   18 1   
    17   12   13 1   
    18   12   14 1   
    19   19   20 1   
    20   19   27 1   
    21   20   21 1   
    22   20   23 1   
    23   20   28 1   
    24   21   22 2   
    25   21   38 1   
    26   23   24 1   
    27   23   25 1   
    28   23   29 1   
    29   24   26 1   
    30   24   30 1   
    31   24   31 1   
    32   25   32 1   
    33   25   33 1   
    34   25   34 1   
    35   26   35 1   
    36   26   36 1   
    37   26   37 1   
    38   38   39 1   
    39   38   46 1   
    40   39   40 1   
    41   39   42 1   
    42   39   47 1   
    43   40   41 2   
    44   40   50 1   
    45   42   43 1   
    46   42   48 1   
    47   42   49 1   
    48   43   44 1   
    49   43   45 1   
    50   50   51 1   
    51   50   54 1   
    52   51   52 1   
    53   51   55 1   
    54   51   56 1   
    55   52   53 2   
    56   52   57 1   
    57   57   58 1   
    58   57   65 1   
    59   58   59 1   
    60   58   61 1   
    61   58   66 1   
    62   59   60 2   
    63   59   69 1   
    64   61   62 1   
    65   61   67 1   
    66   61   68 1   
    67   62   63 1   
    68   62   64 1   
    69   69   70 1   
    70   69   73 1   
    71   70   71 1   
    72   70   74 1   
    73   70   75 1   
    74   71   72 2   
    75   71   76 1   
    76   76   77 1   
    77   76   85 1   
    78   77   78 1   
    79   77   80 1   
    80   77   86 1   
    81   78   79 2   
    82   78   93 1   
    83   80   81 1   
    84   80   87 1   
    85   80   88 1   
    86   81   82 1   
    87   81   89 1   
    88   81   90 1   
    89   82   83 1   
    90   82   84 2   
    91   83   91 1   
    92   83   92 1   
    93   93   94 1   
    94   93  100 1   
    95   94   95 1   
    96   94   97 1   
    97   94  101 1   
    98   95   96 2   
    99   95  109 1   
   100   97   98 1   
   101   97   99 1   
   102   97  102 1   
   103   98  103 1   
   104   98  104 1   
   105   98  105 1   
   106   99  106 1   
   107   99  107 1   
   108   99  108 1   
   109  109  110 1   
   110  109  117 1   
   111  110  111 1   
   112  110  113 1   
   113  110  118 1   
   114  111  112 2   
   115  111  123 1   
   116  113  114 1   
   117  113  119 1   
   118  113  120 1   
   119  114  115 1   
   120  114  116 2   
   121  115  121 1   
   122  115  122 1   
   123  123  124 1   
   124  123  135 1   
   125  124  125 1   
   126  124  127 1   
   127  124  136 1   
   128  125  126 2   
   129  125  144 1   
   130  127  128 1   
   131  127  137 1   
   132  127  138 1   
   133  128  129 ar  
   134  128  130 ar  
   135  129  131 ar  
   136  129  139 1   
   137  130  132 ar  
   138  130  140 1   
   139  131  133 ar  
   140  131  141 1   
   141  132  133 ar  
   142  132  142 1   
   143  133  134 1   
   144  134  143 1   
   145  144  145 1   
   146  144  153 1   
   147  145  146 1   
   148  145  148 1   
   149  145  154 1   
   150  146  147 2   
   151  146  159 1   
   152  148  149 1   
   153  148  155 1   
   154  148  156 1   
   155  149  150 1   
   156  149  157 1   
   157  149  158 1   
   158  150  151 1   
   159  150  152 1   
   160  159  160 1   
   161  159  168 1   
   162  160  161 1   
   163  160  163 1   
   164  160  169 1   
   165  161  162 2   
   166  161  174 1   
   167  163  164 1   
   168  163  170 1   
   169  163  171 1   
   170  164  165 1   
   171  164  172 1   
   172  164  173 1   
   173  165  166 1   
   174  165  167 1   
   175  174  175 1   
   176  174  179 1   
   177  175  176 1   
   178  175  177 1   
   179  175  178 1   
   180  181  182 1   
   181  181  183 1   
   182  184  185 1   
   183  184  186 1   
   184  187  188 1   
   185  187  189 1   
@<TRIPOS>SUBSTRUCTURE
     1 MOL         1 TEMP              0 ****  ****    0 ROOT
