@<TRIPOS>MOLECULE
MOL
  181   177     1     0     0
SMALL
resp


@<TRIPOS>ATOM
      1 C1          7.9360   -4.5720    5.5370 c3        1 MOL     -0.322718
      2 C2          7.1410   -4.1900    4.3070 c         1 MOL      0.705361
      3 O1          5.9210   -4.3970    4.2480 o         1 MOL     -0.594934
      4 H1          7.5340   -5.4940    5.9580 hc        1 MOL      0.072647
      5 H2          8.9800   -4.7240    5.2630 hc        1 MOL      0.072647
      6 H3          7.8660   -3.7750    6.2770 hc        1 MOL      0.072647
      7 N1          7.7700   -3.7190    3.2890 n         1 MOL     -0.522025
      8 C3          9.1900   -3.3740    3.0400 c3        1 MOL      0.244942
      9 C4          9.5410   -3.3900    1.5650 c         1 MOL      0.412558
     10 O2          8.6900   -3.6270    0.7070 o         1 MOL     -0.429301
     11 C5          9.5750   -2.0270    3.6580 c3        1 MOL     -0.334031
     12 C6          8.8040   -0.8670    2.9090 c         1 MOL      0.795291
     13 O3          7.6170   -0.6090    3.2330 o         1 MOL     -0.733943
     14 O4          9.3780   -0.2440    2.0070 o         1 MOL     -0.733943
     15 H4          7.1710   -3.7300    2.4810 hn        1 MOL      0.303573
     16 H5          9.7290   -4.1910    3.5210 h1        1 MOL      0.041637
     17 H6         10.6620   -2.0000    3.6770 hc        1 MOL      0.062455
     18 H7          9.2930   -2.0080    4.7160 hc        1 MOL      0.062455
     19 N2         10.7890   -3.1040    1.1500 n         1 MOL     -0.606325
     20 C7         11.3570   -3.3300   -0.1690 c3        1 MOL      0.277889
     21 C8         10.7610   -2.5500   -1.3300 c         1 MOL      0.303031
     22 O5         11.3070   -2.6870   -2.4930 o         1 MOL     -0.553547
     23 C9         11.2070   -4.8660   -0.4010 c3        1 MOL     -0.493342
     24 H8         11.4670   -2.7060    1.7840 hn        1 MOL      0.330732
     25 H9         12.3980   -3.0200   -0.1510 h1        1 MOL      0.046684
     26 H10        11.8670   -5.1270   -1.2200 hc        1 MOL      0.145483
     27 H11        11.3540   -5.5510    0.4380 hc        1 MOL      0.145483
     28 H12        10.2440   -5.0680   -0.8720 hc        1 MOL      0.145483
     29 N3          9.6080   -1.8350   -1.1650 n         1 MOL     -0.073779
     30 C10         8.7990   -1.1760   -2.2250 c3        1 MOL      0.031688
     31 C11         8.7410    0.3210   -1.9900 c         1 MOL      0.499529
     32 O6          9.1360    0.7590   -0.9340 o         1 MOL     -0.614545
     33 C12         7.3880   -1.8300   -2.3050 c3        1 MOL     -0.016266
     34 C13         6.5160   -1.5840   -1.0750 c         1 MOL      0.581876
     35 O7          5.4270   -2.2170   -1.0440 o         1 MOL     -0.645214
     36 O8          6.7860   -0.7620   -0.1540 o         1 MOL     -0.645214
     37 H13         9.2390   -1.7820   -0.2170 hn        1 MOL      0.130370
     38 H14         9.1290   -1.2210   -3.2590 h1        1 MOL      0.013862
     39 H15         7.4630   -2.9160   -2.3850 hc        1 MOL      0.020905
     40 H16         6.8710   -1.4910   -3.2060 hc        1 MOL      0.020905
     41 N4          8.1230    1.0580   -2.9000 n         1 MOL     -0.339964
     42 C14         7.8260    2.4770   -2.8660 c3        1 MOL     -0.217895
     43 C15         6.6660    2.8220   -1.8890 c         1 MOL      0.490233
     44 O9          6.4660    2.2930   -0.8160 o         1 MOL     -0.531745
     45 H17         7.9960    0.5270   -3.7520 hn        1 MOL      0.280215
     46 H18         7.6390    2.8600   -3.8670 h1        1 MOL      0.117997
     47 H19         8.6660    3.0650   -2.4780 h1        1 MOL      0.117997
     48 N5          5.9030    3.8190   -2.3310 n         1 MOL     -0.330182
     49 C16         4.8750    4.4600   -1.5880 c3        1 MOL     -0.015760
     50 C17         3.5210    3.7760   -1.6660 c         1 MOL      0.672170
     51 O10         2.7120    3.8900   -0.7500 o         1 MOL     -0.467864
     52 C18         4.7450    5.9500   -2.1420 c3        1 MOL     -0.399766
     53 C19         3.7050    6.6610   -1.3490 c         1 MOL      0.724482
     54 N6          3.9630    7.0920   -0.1530 n         1 MOL     -0.829436
     55 O11         2.6310    6.8770   -1.8460 o         1 MOL     -0.538767
     56 H20         6.1900    4.3380   -3.1450 hn        1 MOL      0.249485
     57 H21         5.0610    4.4900   -0.5110 h1        1 MOL      0.074997
     58 H22         4.4520    5.8370   -3.1880 hc        1 MOL      0.115547
     59 H23         5.6990    6.4570   -2.0070 hc        1 MOL      0.115547
     60 H24         4.8070    6.7800    0.2980 hn        1 MOL      0.379508
     61 H25         3.2120    7.5640    0.3380 hn        1 MOL      0.379508
     62 N7          3.2770    2.9730   -2.7050 n         1 MOL     -0.572128
     63 C20         2.0530    2.2360   -2.8340 c3        1 MOL     -0.115036
     64 C21         1.8500    1.1690   -1.7900 c         1 MOL      0.798728
     65 O12         2.7250    0.8520   -1.0140 o         1 MOL     -0.549621
     66 H26         4.0520    2.7160   -3.3040 hn        1 MOL      0.316011
     67 H27         2.1090    1.7250   -3.7870 h1        1 MOL      0.125435
     68 H28         1.2310    2.9400   -2.7020 h1        1 MOL      0.125435
     69 N8          0.7310    0.4810   -1.7850 n         1 MOL     -0.747618
     70 C22        -0.3710    0.5350   -2.7700 c3        1 MOL     -0.015669
     71 C23        -1.5930    1.0790   -2.0790 c         1 MOL      0.647731
     72 O13        -2.3980    1.7770   -2.6400 o         1 MOL     -0.570501
     73 C24        -0.6170   -0.7990   -3.4470 c3        1 MOL      0.338146
     74 C25         0.6620   -1.3090   -4.1370 c3        1 MOL     -0.423282
     75 O14        -0.9270   -1.8570   -2.4690 oh        1 MOL     -0.589048
     76 H29         0.7380   -0.3520   -1.2090 hn        1 MOL      0.399521
     77 H30        -0.0760    1.2380   -3.5530 h1        1 MOL      0.021206
     78 H31        -1.4240   -0.6440   -4.1750 h1        1 MOL      0.042314
     79 H32        -1.4470   -2.5390   -2.9050 ho        1 MOL      0.412843
     80 H33         1.2520   -0.5680   -4.6620 hc        1 MOL      0.109796
     81 H34         1.2570   -1.8600   -3.4000 hc        1 MOL      0.109796
     82 H35         0.4230   -2.0510   -4.8970 hc        1 MOL      0.109796
     83 N9         -1.7810    0.6640   -0.7740 n         1 MOL     -0.425665
     84 C26        -3.0620    0.8480    0.0310 c3        1 MOL     -0.013314
     85 C27        -2.7690    1.5090    1.3680 c         1 MOL      0.567342
     86 O15        -1.6280    1.2690    1.8040 o         1 MOL     -0.563468
     87 C28        -3.8110   -0.4830    0.1820 c3        1 MOL     -0.126601
     88 C29        -2.9210   -1.5740    0.7660 c3        1 MOL      0.088633
     89 C30        -4.5830   -0.8010   -1.1820 c3        1 MOL      0.030962
     90 C31        -3.6920   -2.8490    1.3020 c3        1 MOL     -0.280251
     91 H36        -1.0770    0.0280   -0.4330 hn        1 MOL      0.253081
     92 H37        -3.6760    1.5420   -0.5560 h1        1 MOL      0.138686
     93 H38        -4.5280   -0.3570    0.9860 hc        1 MOL      0.098706
     94 H39        -2.3480   -1.1540    1.5910 hc        1 MOL      0.011254
     95 H40        -2.2050   -1.8750    0.0060 hc        1 MOL      0.011254
     96 H41        -5.4050   -1.4830   -0.9600 hc        1 MOL      0.002762
     97 H42        -5.0190    0.1180   -1.5830 hc        1 MOL      0.002762
     98 H43        -3.9420   -1.2590   -1.9250 hc        1 MOL      0.002762
     99 H44        -4.1520   -3.4720    0.5260 hc        1 MOL      0.066289
    100 H45        -2.9730   -3.4770    1.8320 hc        1 MOL      0.066289
    101 H46        -4.5380   -2.5840    1.9380 hc        1 MOL      0.066289
    102 N10        -3.5900    2.3510    2.0250 n         1 MOL     -0.657823
    103 C32        -4.8960    2.7250    1.5630 c3        1 MOL      0.437868
    104 C33        -6.0350    1.6930    1.9170 c         1 MOL      0.620823
    105 O16        -5.8540    0.7400    2.6740 o         1 MOL     -0.592385
    106 C34        -5.1420    4.0210    2.2290 c3        1 MOL     -0.302610
    107 C35        -6.3950    4.7900    1.7390 c         1 MOL      0.705823
    108 O17        -6.8550    4.6040    0.6030 o         1 MOL     -0.715315
    109 O18        -7.0500    5.4910    2.5590 o         1 MOL     -0.715315
    110 H47        -3.2110    2.8820    2.7960 hn        1 MOL      0.343917
    111 H48        -4.8850    2.8890    0.4780 h1        1 MOL     -0.040123
    112 H49        -4.3100    4.7200    2.1480 hc        1 MOL      0.033121
    113 H50        -5.2110    3.8870    3.3120 hc        1 MOL      0.033121
    114 N11        -7.1710    1.8240    1.1920 n         1 MOL     -0.845736
    115 C36        -8.5070    1.1180    1.2470 c3        1 MOL      0.728797
    116 C37        -9.4330    1.4130    0.0970 c         1 MOL      0.181079
    117 O19        -9.3640    2.5690   -0.3900 o         1 MOL     -0.471127
    118 C38        -9.1340    1.4990    2.6170 c3        1 MOL     -0.398178
    119 C39       -10.6200    1.2240    2.7480 ca        1 MOL      0.065538
    120 C40       -11.5470    2.0290    2.1340 ca        1 MOL     -0.106055
    121 C41       -11.0550    0.0500    3.4780 ca        1 MOL     -0.106055
    122 C42       -12.9040    1.6790    2.1090 ca        1 MOL     -0.139125
    123 C43       -12.4160   -0.2380    3.5080 ca        1 MOL     -0.139125
    124 C44       -13.3550    0.5490    2.8110 ca        1 MOL     -0.143172
    125 H51        -7.1480    2.6270    0.5890 hn        1 MOL      0.362147
    126 H52        -8.2540    0.0590    1.2480 h1        1 MOL     -0.084149
    127 H53        -9.0460    2.5750    2.6690 hc        1 MOL      0.134088
    128 H54        -8.5310    1.1500    3.4530 hc        1 MOL      0.134088
    129 H55       -11.2030    2.9260    1.6430 ha        1 MOL      0.109177
    130 H56       -10.3850   -0.5660    4.0520 ha        1 MOL      0.109177
    131 H57       -13.5640    2.3600    1.5910 ha        1 MOL      0.100233
    132 H58       -12.7230   -1.0920    4.0880 ha        1 MOL      0.100233
    133 H59       -14.4070    0.3370    2.8700 ha        1 MOL      0.100147
    134 N12       -10.2290    0.5260   -0.4210 n         1 MOL      0.144897
    135 C45       -10.2150   -0.9380   -0.1820 c3        1 MOL      0.066419
    136 C46        -8.9400   -1.6860   -0.6750 c         1 MOL      0.726465
    137 O20        -7.8950   -1.0860   -0.9080 o         1 MOL     -0.573049
    138 C47       -11.5440   -1.3630   -0.8560 c3        1 MOL     -0.234548
    139 C48       -11.6400   -0.4970   -2.0830 c3        1 MOL      0.100772
    140 C49       -11.0370    0.8530   -1.5980 c3        1 MOL     -0.085693
    141 H60       -10.2820   -1.1430    0.8870 h1        1 MOL     -0.064436
    142 H61       -11.6450   -2.3930   -1.2100 hc        1 MOL      0.043216
    143 H62       -12.3760   -1.1320   -0.1910 hc        1 MOL      0.043216
    144 H63       -10.9620   -0.8930   -2.8350 hc        1 MOL      0.001849
    145 H64       -12.6390   -0.3550   -2.4860 hc        1 MOL      0.001849
    146 H65       -10.4060    1.2480   -2.3860 h1        1 MOL      0.045498
    147 H66       -11.7910    1.5340   -1.2160 h1        1 MOL      0.045498
    148 N13        -9.0950   -2.9890   -0.8240 n         1 MOL     -0.749477
    149 C50        -7.9860   -3.8970   -1.0140 c3        1 MOL      0.411028
    150 C51        -7.9860   -5.2180   -0.2480 c         1 MOL      0.336727
    151 O21        -7.6170   -6.2760   -0.7050 o         1 MOL     -0.516926
    152 C52        -7.6240   -4.1370   -2.4540 c3        1 MOL     -0.127976
    153 C53        -6.1570   -4.3740   -2.8190 c3        1 MOL     -0.121665
    154 C54        -5.7160   -4.3200   -4.2280 c         1 MOL      0.726663
    155 O22        -4.9480   -3.3840   -4.5800 o         1 MOL     -0.717098
    156 O23        -6.0810   -5.2090   -5.0200 o         1 MOL     -0.717098
    157 H67       -10.0090   -3.4140   -0.7400 hn        1 MOL      0.353065
    158 H68        -7.1560   -3.3400   -0.5890 h1        1 MOL      0.069312
    159 H69        -7.9090   -3.2130   -2.9670 hc        1 MOL      0.030614
    160 H70        -8.2690   -4.8570   -2.9510 hc        1 MOL      0.030614
    161 H71        -5.7880   -5.3170   -2.4240 hc        1 MOL      0.006012
    162 H72        -5.6080   -3.6440   -2.2210 hc        1 MOL      0.006012
    163 N14        -8.3780   -5.3150    1.0090 n         1 MOL     -0.329180
    164 C55        -8.7100   -4.2990    2.0440 c3        1 MOL     -0.150955
    165 H73        -8.9750   -4.8020    2.9740 h1        1 MOL      0.075539
    166 H74        -7.8450   -3.6560    2.2120 h1        1 MOL      0.075539
    167 H75        -9.5520   -3.6960    1.7050 h1        1 MOL      0.075539
    168 H76        -8.3620   -6.2610    1.3750 hn        1 MOL      0.271247
    169 Ca1         7.4020    1.2260    1.3540 Ca        1 MOL      1.761211
    170 O24         4.4710    0.4720    1.1080 oh        1 MOL     -0.822186
    171 H77         4.7920   -0.3750    0.8000 ho        1 MOL      0.393252
    172 H78         3.8580    0.7560    0.4320 ho        1 MOL      0.393252
    173 O25         5.5890    2.8170    2.6120 oh        1 MOL     -0.822186
    174 H79         5.8190    3.1380    3.4820 ho        1 MOL      0.393252
    175 H80         4.7630    3.2400    2.4140 ho        1 MOL      0.393252
    176 O26         8.7160    3.7000    0.9400 oh        1 MOL     -0.822186
    177 H81         9.4630    3.8990    1.5000 ho        1 MOL      0.393252
    178 H82         8.8510    4.2410    0.1570 ho        1 MOL      0.393252
    179 O27         8.5510    2.4050    3.4030 oh        1 MOL     -0.822186
    180 H83         9.4410    2.7450    3.5180 ho        1 MOL      0.393252
    181 H84         8.0230    2.8810    4.0290 ho        1 MOL      0.393252
@<TRIPOS>BOND
     1    1    2 1   
     2    1    4 1   
     3    1    5 1   
     4    1    6 1   
     5    2    3 2   
     6    2    7 1   
     7    7    8 1   
     8    7   15 1   
     9    8    9 1   
    10    8   11 1   
    11    8   16 1   
    12    9   10 2   
    13    9   19 1   
    14   11   12 1   
    15   11   17 1   
    16   11   18 1   
    17   12   13 1   
    18   12   14 1   
    19   19   20 1   
    20   19   24 1   
    21   20   21 1   
    22   20   23 1   
    23   20   25 1   
    24   21   22 2   
    25   21   29 1   
    26   23   26 1   
    27   23   27 1   
    28   23   28 1   
    29   29   30 1   
    30   29   37 1   
    31   30   31 1   
    32   30   33 1   
    33   30   38 1   
    34   31   32 2   
    35   31   41 1   
    36   33   34 1   
    37   33   39 1   
    38   33   40 1   
    39   34   35 1   
    40   34   36 1   
    41   41   42 1   
    42   41   45 1   
    43   42   43 1   
    44   42   46 1   
    45   42   47 1   
    46   43   44 2   
    47   43   48 1   
    48   48   49 1   
    49   48   56 1   
    50   49   50 1   
    51   49   52 1   
    52   49   57 1   
    53   50   51 2   
    54   50   62 1   
    55   52   53 1   
    56   52   58 1   
    57   52   59 1   
    58   53   54 1   
    59   53   55 2   
    60   54   60 1   
    61   54   61 1   
    62   62   63 1   
    63   62   66 1   
    64   63   64 1   
    65   63   67 1   
    66   63   68 1   
    67   64   65 2   
    68   64   69 1   
    69   69   70 1   
    70   69   76 1   
    71   70   71 1   
    72   70   73 1   
    73   70   77 1   
    74   71   72 2   
    75   71   83 1   
    76   73   74 1   
    77   73   75 1   
    78   73   78 1   
    79   74   80 1   
    80   74   81 1   
    81   74   82 1   
    82   75   79 1   
    83   83   84 1   
    84   83   91 1   
    85   84   85 1   
    86   84   87 1   
    87   84   92 1   
    88   85   86 2   
    89   85  102 1   
    90   87   88 1   
    91   87   89 1   
    92   87   93 1   
    93   88   90 1   
    94   88   94 1   
    95   88   95 1   
    96   89   96 1   
    97   89   97 1   
    98   89   98 1   
    99   90   99 1   
   100   90  100 1   
   101   90  101 1   
   102  102  103 1   
   103  102  110 1   
   104  103  104 1   
   105  103  106 1   
   106  103  111 1   
   107  104  105 2   
   108  104  114 1   
   109  106  107 1   
   110  106  112 1   
   111  106  113 1   
   112  107  108 1   
   113  107  109 1   
   114  114  115 1   
   115  114  125 1   
   116  115  116 1   
   117  115  118 1   
   118  115  126 1   
   119  116  117 2   
   120  116  134 1   
   121  118  119 1   
   122  118  127 1   
   123  118  128 1   
   124  119  120 ar  
   125  119  121 ar  
   126  120  122 ar  
   127  120  129 1   
   128  121  123 ar  
   129  121  130 1   
   130  122  124 ar  
   131  122  131 1   
   132  123  124 ar  
   133  123  132 1   
   134  124  133 1   
   135  134  135 1   
   136  134  140 1   
   137  135  136 1   
   138  135  138 1   
   139  135  141 1   
   140  136  137 2   
   141  136  148 1   
   142  138  139 1   
   143  138  142 1   
   144  138  143 1   
   145  139  140 1   
   146  139  144 1   
   147  139  145 1   
   148  140  146 1   
   149  140  147 1   
   150  148  149 1   
   151  148  157 1   
   152  149  150 1   
   153  149  152 1   
   154  149  158 1   
   155  150  151 2   
   156  150  163 1   
   157  152  153 1   
   158  152  159 1   
   159  152  160 1   
   160  153  154 1   
   161  153  161 1   
   162  153  162 1   
   163  154  155 1   
   164  154  156 1   
   165  163  164 1   
   166  163  168 1   
   167  164  165 1   
   168  164  166 1   
   169  164  167 1   
   170  170  171 1   
   171  170  172 1   
   172  173  174 1   
   173  173  175 1   
   174  176  177 1   
   175  176  178 1   
   176  179  180 1   
   177  179  181 1   
@<TRIPOS>SUBSTRUCTURE
     1 MOL         1 TEMP              0 ****  ****    0 ROOT
