@<TRIPOS>MOLECULE
MOL
  184   179     1     0     0
SMALL
resp


@<TRIPOS>ATOM
      1 C1         -5.2020   -1.2880   -3.5720 c3        1 MOL     -0.329766
      2 C2         -6.4990   -0.5040   -3.2040 c         1 MOL      0.649933
      3 O1         -6.4650    0.7420   -3.2520 o         1 MOL     -0.570264
      4 H1         -4.8870   -1.0140   -4.5790 hc        1 MOL      0.096666
      5 H2         -4.4120   -1.0380   -2.8650 hc        1 MOL      0.096666
      6 H3         -5.4000   -2.3590   -3.5330 hc        1 MOL      0.096666
      7 N1         -7.6390   -1.1310   -2.8410 n         1 MOL     -0.695546
      8 C3         -8.9030   -0.4770   -2.5050 c3        1 MOL      0.584374
      9 C4         -8.8110   -0.0200   -0.9950 c         1 MOL      0.470644
     10 O2         -9.5980   -0.5140   -0.1450 o         1 MOL     -0.523605
     11 C5        -10.0560   -1.4300   -2.8570 c3        1 MOL     -0.556336
     12 C6        -11.4330   -0.7120   -2.6820 c         1 MOL      0.790740
     13 O3        -11.5120    0.4900   -2.4310 o         1 MOL     -0.738218
     14 O4        -12.5260   -1.3680   -2.8740 o         1 MOL     -0.738218
     15 H4         -7.5070   -2.1330   -2.7770 hn        1 MOL      0.304294
     16 H5         -8.9230    0.4280   -3.1090 h1        1 MOL     -0.009415
     17 H6         -9.8910   -2.3430   -2.2780 hc        1 MOL      0.083775
     18 H7         -9.9090   -1.7140   -3.9000 hc        1 MOL      0.083775
     19 N2         -7.8190    0.8330   -0.6290 n         1 MOL     -0.636066
     20 C7         -7.4740    1.5040    0.6580 c3        1 MOL      0.586765
     21 C8         -6.0290    1.0700    1.0990 c         1 MOL      0.288665
     22 O5         -5.2740    0.6590    0.2110 o         1 MOL     -0.444269
     23 C9         -7.5410    3.0330    0.3640 c3        1 MOL     -0.443694
     24 H8         -7.1770    1.1870   -1.3240 hn        1 MOL      0.249404
     25 H9         -8.1830    1.1670    1.4130 h1        1 MOL     -0.070422
     26 H10        -7.2690    3.5730    1.2720 hc        1 MOL      0.112774
     27 H11        -6.8440    3.2860   -0.4430 hc        1 MOL      0.112774
     28 H12        -8.5470    3.2510    0.0180 hc        1 MOL      0.112774
     29 N3         -5.7280    1.0900    2.3890 n         1 MOL     -0.356458
     30 C10        -4.4810    0.7170    3.0070 c3        1 MOL      0.007953
     31 C11        -3.9280    1.9600    3.7740 c         1 MOL      0.588725
     32 O6         -4.1580    3.0800    3.3230 o         1 MOL     -0.516635
     33 C12        -4.7400   -0.5550    3.8440 c3        1 MOL     -0.201161
     34 C13        -3.4070   -1.2850    4.2390 c         1 MOL      0.703727
     35 O7         -2.8000   -1.0200    5.3360 o         1 MOL     -0.723052
     36 O8         -2.9390   -2.0600    3.4250 o         1 MOL     -0.723052
     37 H13        -6.4100    1.4340    3.0470 hn        1 MOL      0.244455
     38 H14        -3.8550    0.5130    2.1350 h1        1 MOL      0.125322
     39 H15        -5.3490   -1.2380    3.2390 hc        1 MOL      0.032836
     40 H16        -5.3660   -0.3000    4.6980 hc        1 MOL      0.032836
     41 N4         -3.0470    1.7100    4.7580 n         1 MOL     -0.465269
     42 C14        -2.4190    2.7500    5.5780 c3        1 MOL     -0.142513
     43 C15        -1.1010    3.3870    5.1290 c         1 MOL      0.629967
     44 O9         -0.6110    4.2990    5.7690 o         1 MOL     -0.603369
     45 H17        -2.7520    0.7800    4.9860 hn        1 MOL      0.322160
     46 H18        -2.0760    2.3070    6.5220 h1        1 MOL      0.090910
     47 H19        -3.1550    3.5110    5.7920 h1        1 MOL      0.090910
     48 N5         -0.5350    2.8550    4.0510 n         1 MOL     -0.310802
     49 C16         0.7310    3.3590    3.5530 c3        1 MOL     -0.124389
     50 C17         0.5130    4.3830    2.4810 c         1 MOL      0.515276
     51 O10        -0.3580    4.2590    1.6110 o         1 MOL     -0.457278
     52 C18         1.4410    2.1400    2.9450 c3        1 MOL     -0.105533
     53 C19         2.7960    2.5090    2.3910 c         1 MOL      0.470849
     54 N6          3.9120    2.4160    3.1550 n         1 MOL     -0.733910
     55 O11         2.9040    3.0160    1.2910 o         1 MOL     -0.430618
     56 H20        -0.9860    2.0630    3.6280 hn        1 MOL      0.232923
     57 H21         1.3110    3.7340    4.4020 h1        1 MOL      0.095093
     58 H22         0.8760    1.7000    2.1240 hc        1 MOL      0.072893
     59 H23         1.5530    1.2750    3.6000 hc        1 MOL      0.072893
     60 H24         3.8760    1.9810    4.0650 hn        1 MOL      0.344367
     61 H25         4.7630    2.8390    2.7980 hn        1 MOL      0.344367
     62 N7          1.1960    5.5310    2.5910 n         1 MOL     -0.302484
     63 C20         1.3990    6.5490    1.5890 c3        1 MOL     -0.127988
     64 C21         2.5320    6.3580    0.5310 c         1 MOL      0.644392
     65 O12         3.5580    5.8130    0.8210 o         1 MOL     -0.497928
     66 H26         1.8170    5.4620    3.3880 hn        1 MOL      0.251256
     67 H27         1.7190    7.4800    2.0630 h1        1 MOL      0.068866
     68 H28         0.4780    6.7310    1.0290 h1        1 MOL      0.068866
     69 N8          2.2890    6.6990   -0.7540 n         1 MOL     -0.471635
     70 C22         3.3180    6.6030   -1.7700 c3        1 MOL     -0.443708
     71 C23         3.5700    5.2300   -2.3920 c         1 MOL      0.644466
     72 O13         4.5710    4.9710   -2.9480 o         1 MOL     -0.567679
     73 C24         3.2540    7.6800   -2.8740 c3        1 MOL      0.504660
     74 C25         2.1970    7.3180   -3.8140 c3        1 MOL     -0.103326
     75 O14         2.7570    8.9690   -2.5180 oh        1 MOL     -0.606711
     76 H29         1.3590    7.0200   -0.9990 hn        1 MOL      0.316587
     77 H30         4.2320    6.9430   -1.2840 h1        1 MOL      0.163777
     78 H31         4.2170    7.8100   -3.3680 h1        1 MOL      0.019160
     79 H32         2.0430    8.7330   -1.9130 ho        1 MOL      0.330135
     80 H33         2.0710    8.1600   -4.5000 hc        1 MOL      0.006701
     81 H34         2.4950    6.4660   -4.4260 hc        1 MOL      0.006701
     82 H35         1.2400    7.1180   -3.3270 hc        1 MOL      0.006701
     83 N9          2.4850    4.4450   -2.3570 n         1 MOL     -0.164789
     84 C26         2.3860    3.0600   -2.8620 c3        1 MOL     -0.287151
     85 C27         1.6290    2.2040   -1.8080 c         1 MOL      0.556656
     86 O15         0.6970    2.6610   -1.1760 o         1 MOL     -0.488533
     87 C28         1.7180    2.8690   -4.2300 c3        1 MOL      0.312999
     88 C29         0.3880    3.6600   -4.3880 c3        1 MOL      0.065139
     89 C30         2.6800    3.2490   -5.3920 c3        1 MOL     -0.376172
     90 C31        -0.3620    3.2590   -5.7100 c3        1 MOL     -0.290066
     91 H36         1.7210    4.8710   -1.8680 hn        1 MOL      0.172866
     92 H37         3.3840    2.6190   -2.8970 h1        1 MOL      0.103021
     93 H38         1.4470    1.8180   -4.3100 hc        1 MOL     -0.041967
     94 H39         0.5700    4.7240   -4.4550 hc        1 MOL      0.023236
     95 H40        -0.2790    3.3500   -3.5840 hc        1 MOL      0.023236
     96 H41         2.3570    2.7790   -6.3190 hc        1 MOL      0.081270
     97 H42         2.7950    4.3170   -5.5610 hc        1 MOL      0.081270
     98 H43         3.6810    2.8310   -5.2670 hc        1 MOL      0.081270
     99 H44        -0.5040    2.1860   -5.8160 hc        1 MOL      0.066881
    100 H45        -1.3780    3.6480   -5.6960 hc        1 MOL      0.066881
    101 H46         0.1570    3.5730   -6.6120 hc        1 MOL      0.066881
    102 N10         2.1230    0.9630   -1.7460 n         1 MOL     -0.385770
    103 C32         1.5390   -0.0110   -0.8240 c3        1 MOL     -0.030799
    104 C33         2.6870   -0.7620   -0.2080 c         1 MOL      0.359259
    105 O16         2.6030   -1.9900    0.0400 o         1 MOL     -0.468991
    106 C34         0.5670   -0.9560   -1.5740 c3        1 MOL      0.046554
    107 C35        -0.4730   -1.6830   -0.6400 c         1 MOL      0.756496
    108 O17        -0.4730   -1.4910    0.5970 o         1 MOL     -0.769872
    109 O18        -1.3330   -2.5000   -0.9510 o         1 MOL     -0.769872
    110 H47         2.8320    0.6240   -2.3850 hn        1 MOL      0.269300
    111 H48         1.0090    0.5290   -0.0490 h1        1 MOL      0.103241
    112 H49         1.0970   -1.7570   -2.0900 hc        1 MOL     -0.011571
    113 H50         0.0180   -0.5200   -2.4190 hc        1 MOL     -0.011571
    114 N11         3.7920   -0.0420    0.0990 n         1 MOL     -0.160196
    115 C36         5.0610   -0.6680    0.6570 c3        1 MOL     -0.013343
    116 C37         5.6150   -1.7490   -0.2980 c         1 MOL      0.179825
    117 O19         6.0900   -1.4550   -1.4200 o         1 MOL     -0.477461
    118 C38         6.1640    0.3410    1.0290 c3        1 MOL     -0.285728
    119 C39         7.4190   -0.2510    1.6150 ca        1 MOL      0.141700
    120 C40         7.4140   -0.6070    2.9870 ca        1 MOL     -0.175119
    121 C41         8.4850   -0.6080    0.8260 ca        1 MOL     -0.175119
    122 C42         8.4350   -1.4090    3.5000 ca        1 MOL     -0.101344
    123 C43         9.5210   -1.3610    1.3380 ca        1 MOL     -0.101344
    124 C44         9.4820   -1.6770    2.6850 ca        1 MOL     -0.130109
    125 H51         3.7360    0.9390   -0.1210 hn        1 MOL      0.178877
    126 H52         4.7360   -1.1150    1.5950 h1        1 MOL      0.076046
    127 H53         5.8160    1.0080    1.8110 hc        1 MOL      0.131462
    128 H54         6.4460    0.9150    0.1430 hc        1 MOL      0.131462
    129 H55         6.6100   -0.1980    3.5800 ha        1 MOL      0.120763
    130 H56         8.4150   -0.2070   -0.1750 ha        1 MOL      0.120763
    131 H57         8.2940   -1.9270    4.4370 ha        1 MOL      0.114207
    132 H58        10.3520   -1.6760    0.7210 ha        1 MOL      0.114207
    133 H59        10.2280   -2.3830    2.9900 ha        1 MOL      0.096598
    134 N12         5.7540   -3.0760    0.0950 n         1 MOL      0.174148
    135 C45         6.2280   -4.0810   -0.8590 c3        1 MOL      0.085897
    136 C46         5.2130   -4.4210   -1.9270 c         1 MOL      0.298668
    137 O20         5.6440   -4.9300   -2.9920 o         1 MOL     -0.553611
    138 C47         6.6980   -5.3040   -0.0990 c3        1 MOL     -0.111123
    139 C48         5.9350   -5.1380    1.2070 c3        1 MOL     -0.070333
    140 C49         5.5970   -3.6670    1.3750 c3        1 MOL     -0.094480
    141 H60         7.1000   -3.6930   -1.3870 h1        1 MOL      0.044216
    142 H61         6.5640   -6.2960   -0.5210 hc        1 MOL      0.059480
    143 H62         7.7530   -5.1190    0.1220 hc        1 MOL      0.059480
    144 H63         5.0510   -5.7770    1.1150 hc        1 MOL      0.035747
    145 H64         6.5070   -5.3290    2.1070 hc        1 MOL      0.035747
    146 H65         4.6260   -3.4370    1.7950 h1        1 MOL      0.029998
    147 H66         6.2730   -3.1660    2.0670 h1        1 MOL      0.029998
    148 N13         3.9280   -4.2510   -1.6830 n         1 MOL     -0.159764
    149 C50         2.8620   -4.9030   -2.4130 c3        1 MOL     -0.063061
    150 C51         2.6040   -4.3940   -3.8080 c         1 MOL      0.460205
    151 O21         2.0160   -5.1350   -4.5970 o         1 MOL     -0.546808
    152 C52         1.5720   -5.0310   -1.5420 c3        1 MOL      0.128214
    153 C53         1.6070   -6.2070   -0.5910 c3        1 MOL     -0.229817
    154 C54         0.2390   -6.2760    0.1640 c         1 MOL      0.743899
    155 O22        -0.1800   -5.2890    0.8320 o         1 MOL     -0.717440
    156 O23        -0.1970   -7.4070    0.2230 o         1 MOL     -0.717440
    157 H67         3.6380   -3.8980   -0.7820 hn        1 MOL      0.236798
    158 H68         3.1030   -5.9570   -2.5490 h1        1 MOL      0.087686
    159 H69         0.6830   -5.1360   -2.1580 hc        1 MOL     -0.029134
    160 H70         1.5080   -4.1120   -0.9510 hc        1 MOL     -0.029134
    161 H71         2.3340   -6.1600    0.2230 hc        1 MOL      0.037386
    162 H72         1.7430   -7.1040   -1.1990 hc        1 MOL      0.037386
    163 N14         3.1850   -3.2310   -4.1170 n         1 MOL     -0.145132
    164 C55         3.1230   -2.7290   -5.4970 c3        1 MOL     -0.347249
    165 H73         3.1660   -3.5700   -6.1910 h1        1 MOL      0.123894
    166 H74         2.1900   -2.1850   -5.6440 h1        1 MOL      0.123894
    167 H75         3.9660   -2.0630   -5.6800 h1        1 MOL      0.123894
    168 H76         3.7060   -2.6940   -3.4350 hn        1 MOL      0.223618
    169 Ca1        -2.0720   -3.5500    1.4050 Ca        1 MOL      1.759702
    170 O24        -4.7010   -4.3400    2.3250 oh        1 MOL     -0.793577
    171 H77        -5.1050   -4.7370    3.0950 ho        1 MOL      0.391688
    172 H78        -5.3570   -3.7120    2.0230 ho        1 MOL      0.391688
    173 O25        -2.0480   -5.3890    3.4660 oh        1 MOL     -0.793577
    174 H79        -2.8510   -5.5860    3.9390 ho        1 MOL      0.391688
    175 H80        -1.3600   -5.3920    4.1290 ho        1 MOL      0.391688
    176 O26        -2.9840   -5.2270   -0.3370 oh        1 MOL     -0.793577
    177 H81        -2.9510   -6.1590   -0.1320 ho        1 MOL      0.391688
    178 H82        -3.2920   -5.1950   -1.2470 ho        1 MOL      0.391688
    179 O27        -0.3930   -3.0160    3.6480 oh        1 MOL     -0.793577
    180 H83        -0.9580   -2.2810    3.8970 ho        1 MOL      0.391688
    181 H84         0.3190   -2.9980    4.3000 ho        1 MOL      0.391688
    182 O28        -4.0620   -2.3330    0.1110 oh        1 MOL     -0.793577
    183 H85        -4.5280   -3.0270   -0.3410 ho        1 MOL      0.391688
    184 H86        -4.7530   -1.8090    0.5240 ho        1 MOL      0.391688
@<TRIPOS>BOND
     1    1    2 1   
     2    1    4 1   
     3    1    5 1   
     4    1    6 1   
     5    2    3 2   
     6    2    7 1   
     7    7    8 1   
     8    7   15 1   
     9    8    9 1   
    10    8   11 1   
    11    8   16 1   
    12    9   10 2   
    13    9   19 1   
    14   11   12 1   
    15   11   17 1   
    16   11   18 1   
    17   12   13 1   
    18   12   14 1   
    19   19   20 1   
    20   19   24 1   
    21   20   21 1   
    22   20   23 1   
    23   20   25 1   
    24   21   22 2   
    25   21   29 1   
    26   23   26 1   
    27   23   27 1   
    28   23   28 1   
    29   29   30 1   
    30   29   37 1   
    31   30   31 1   
    32   30   33 1   
    33   30   38 1   
    34   31   32 2   
    35   31   41 1   
    36   33   34 1   
    37   33   39 1   
    38   33   40 1   
    39   34   35 1   
    40   34   36 1   
    41   41   42 1   
    42   41   45 1   
    43   42   43 1   
    44   42   46 1   
    45   42   47 1   
    46   43   44 2   
    47   43   48 1   
    48   48   49 1   
    49   48   56 1   
    50   49   50 1   
    51   49   52 1   
    52   49   57 1   
    53   50   51 2   
    54   50   62 1   
    55   52   53 1   
    56   52   58 1   
    57   52   59 1   
    58   53   54 1   
    59   53   55 2   
    60   54   60 1   
    61   54   61 1   
    62   62   63 1   
    63   62   66 1   
    64   63   64 1   
    65   63   67 1   
    66   63   68 1   
    67   64   65 2   
    68   64   69 1   
    69   69   70 1   
    70   69   76 1   
    71   70   71 1   
    72   70   73 1   
    73   70   77 1   
    74   71   72 2   
    75   71   83 1   
    76   73   74 1   
    77   73   75 1   
    78   73   78 1   
    79   74   80 1   
    80   74   81 1   
    81   74   82 1   
    82   75   79 1   
    83   83   84 1   
    84   83   91 1   
    85   84   85 1   
    86   84   87 1   
    87   84   92 1   
    88   85   86 2   
    89   85  102 1   
    90   87   88 1   
    91   87   89 1   
    92   87   93 1   
    93   88   90 1   
    94   88   94 1   
    95   88   95 1   
    96   89   96 1   
    97   89   97 1   
    98   89   98 1   
    99   90   99 1   
   100   90  100 1   
   101   90  101 1   
   102  102  103 1   
   103  102  110 1   
   104  103  104 1   
   105  103  106 1   
   106  103  111 1   
   107  104  105 2   
   108  104  114 1   
   109  106  107 1   
   110  106  112 1   
   111  106  113 1   
   112  107  108 1   
   113  107  109 1   
   114  114  115 1   
   115  114  125 1   
   116  115  116 1   
   117  115  118 1   
   118  115  126 1   
   119  116  117 2   
   120  116  134 1   
   121  118  119 1   
   122  118  127 1   
   123  118  128 1   
   124  119  120 ar  
   125  119  121 ar  
   126  120  122 ar  
   127  120  129 1   
   128  121  123 ar  
   129  121  130 1   
   130  122  124 ar  
   131  122  131 1   
   132  123  124 ar  
   133  123  132 1   
   134  124  133 1   
   135  134  135 1   
   136  134  140 1   
   137  135  136 1   
   138  135  138 1   
   139  135  141 1   
   140  136  137 2   
   141  136  148 1   
   142  138  139 1   
   143  138  142 1   
   144  138  143 1   
   145  139  140 1   
   146  139  144 1   
   147  139  145 1   
   148  140  146 1   
   149  140  147 1   
   150  148  149 1   
   151  148  157 1   
   152  149  150 1   
   153  149  152 1   
   154  149  158 1   
   155  150  151 2   
   156  150  163 1   
   157  152  153 1   
   158  152  159 1   
   159  152  160 1   
   160  153  154 1   
   161  153  161 1   
   162  153  162 1   
   163  154  155 1   
   164  154  156 1   
   165  163  164 1   
   166  163  168 1   
   167  164  165 1   
   168  164  166 1   
   169  164  167 1   
   170  170  171 1   
   171  170  172 1   
   172  173  174 1   
   173  173  175 1   
   174  176  177 1   
   175  176  178 1   
   176  179  180 1   
   177  179  181 1   
   178  182  183 1   
   179  182  184 1   
@<TRIPOS>SUBSTRUCTURE
     1 MOL         1 TEMP              0 ****  ****    0 ROOT
