@<TRIPOS>MOLECULE
MOL
  184   179     1     0     0
SMALL
resp


@<TRIPOS>ATOM
      1 C1          1.6140   -0.7220    5.0240 c3        1 MOL     -0.335627
      2 C2          2.7630   -0.2660    4.1150 c         1 MOL      0.651145
      3 O1          2.7400    0.8050    3.4550 o         1 MOL     -0.554941
      4 H1          1.8330   -0.4420    6.0540 hc        1 MOL      0.085193
      5 H2          0.6870   -0.2440    4.7070 hc        1 MOL      0.085193
      6 H3          1.5050   -1.8040    4.9570 hc        1 MOL      0.085193
      7 N1          3.6880   -1.1360    3.9400 n         1 MOL     -0.512262
      8 C3          4.9830   -0.9490    3.1830 c3        1 MOL      0.064537
      9 C4          5.4250   -2.1640    2.3620 c         1 MOL      0.407473
     10 O2          6.2330   -2.0370    1.4570 o         1 MOL     -0.362905
     11 C5          6.1070   -0.5830    4.1880 c3        1 MOL     -0.053971
     12 C6          7.5030   -0.4340    3.6760 c         1 MOL      0.673835
     13 O3          8.4130   -1.1810    4.0840 o         1 MOL     -0.696165
     14 O4          7.7260    0.4550    2.8270 o         1 MOL     -0.696165
     15 H4          3.5900   -1.9950    4.4670 hn        1 MOL      0.287836
     16 H5          4.8470   -0.1020    2.5110 h1        1 MOL      0.099231
     17 H6          6.0760   -1.2860    5.0170 hc        1 MOL     -0.026832
     18 H7          5.7980    0.3300    4.6820 hc        1 MOL     -0.026832
     19 N2          4.8630   -3.3120    2.6510 n         1 MOL     -0.295179
     20 C7          5.1210   -4.6640    1.9540 c3        1 MOL      0.014174
     21 C8          4.9710   -4.5980    0.4330 c         1 MOL      0.632178
     22 O5          5.8560   -5.0900   -0.3030 o         1 MOL     -0.570152
     23 C9          6.4470   -5.2520    2.5420 c3        1 MOL     -0.329688
     24 H8          4.1910   -3.3040    3.4000 hn        1 MOL      0.215099
     25 H9          4.3170   -5.3350    2.2460 h1        1 MOL      0.085135
     26 H10         6.4170   -5.1780    3.6330 hc        1 MOL      0.096160
     27 H11         6.6620   -6.2710    2.2270 hc        1 MOL      0.096160
     28 H12         7.3460   -4.7000    2.2610 hc        1 MOL      0.096160
     29 N3          3.9690   -3.9370   -0.0720 n         1 MOL     -0.441924
     30 C10         3.7840   -3.7210   -1.5200 c3        1 MOL      0.155516
     31 C11         4.8600   -2.8140   -2.2020 c         1 MOL      0.336662
     32 O6          4.8560   -2.6540   -3.4510 o         1 MOL     -0.551241
     33 C12         3.3540   -4.9970   -2.2680 c3        1 MOL     -0.116666
     34 C13         2.2110   -5.7260   -1.6240 c         1 MOL      0.686221
     35 O7          2.3330   -6.9780   -1.4790 o         1 MOL     -0.713128
     36 O8          1.2690   -5.0660   -1.1300 o         1 MOL     -0.713128
     37 H13         3.2620   -3.7000    0.6050 hn        1 MOL      0.259819
     38 H14         2.9220   -3.0620   -1.6440 h1        1 MOL      0.062350
     39 H15         4.2540   -5.6050   -2.3520 hc        1 MOL      0.005605
     40 H16         3.0180   -4.7240   -3.2780 hc        1 MOL      0.005605
     41 N4          5.7370   -2.1030   -1.3950 n         1 MOL      0.111636
     42 C14         6.7470   -1.2590   -2.0200 c3        1 MOL     -0.267149
     43 C15         6.3640    0.0560   -2.6480 c         1 MOL      0.573008
     44 O9          7.2120    0.6840   -3.2930 o         1 MOL     -0.571450
     45 H17         5.8130   -2.2480   -0.3980 hn        1 MOL     -0.037879
     46 H18         7.3380   -1.8940   -2.6850 h1        1 MOL      0.119676
     47 H19         7.4550   -1.0810   -1.2050 h1        1 MOL      0.119676
     48 N5          5.0830    0.4400   -2.3940 n         1 MOL     -0.288165
     49 C16         4.3960    1.5570   -3.1000 c3        1 MOL      0.073083
     50 C17         4.3060    2.7100   -2.1550 c         1 MOL      0.471899
     51 O10         3.5680    2.7080   -1.2100 o         1 MOL     -0.426711
     52 C18         3.1480    1.0990   -3.8260 c3        1 MOL      0.021249
     53 C19         2.0550    0.5650   -2.9050 c         1 MOL      0.469355
     54 N6          0.9290    1.1790   -2.8970 n         1 MOL     -0.777544
     55 O11         2.2950   -0.4130   -2.1640 o         1 MOL     -0.423242
     56 H20         4.4670   -0.2780   -2.0220 hn        1 MOL      0.105412
     57 H21         5.1610    1.8490   -3.8150 h1        1 MOL     -0.000501
     58 H22         3.3240    0.2400   -4.4760 hc        1 MOL      0.004897
     59 H23         2.7640    1.8980   -4.4470 hc        1 MOL      0.004897
     60 H24         0.8110    1.9700   -3.5070 hn        1 MOL      0.384643
     61 H25         0.2160    0.8510   -2.2620 hn        1 MOL      0.384643
     62 N7          5.0460    3.7990   -2.4210 n         1 MOL     -0.371571
     63 C20         4.9650    5.0570   -1.6250 c3        1 MOL     -0.232562
     64 C21         3.5590    5.7120   -1.7870 c         1 MOL      0.535212
     65 O12         2.8780    5.4310   -2.7880 o         1 MOL     -0.525049
     66 H26         5.7040    3.7940   -3.1870 hn        1 MOL      0.283543
     67 H27         5.5810    5.7620   -2.1980 h1        1 MOL      0.129795
     68 H28         5.3870    4.9410   -0.6320 h1        1 MOL      0.129795
     69 N8          3.1210    6.5510   -0.8550 n         1 MOL     -0.358789
     70 C22         1.9110    7.4780   -0.9410 c3        1 MOL     -0.255614
     71 C23         0.6530    6.9040   -0.2470 c         1 MOL      0.566388
     72 O13        -0.2650    7.6870   -0.0290 o         1 MOL     -0.590563
     73 C24         2.2860    8.9620   -0.4640 c3        1 MOL      0.522011
     74 C25         2.9780    8.9900    0.8460 c3        1 MOL     -0.243977
     75 O14         2.9800    9.5720   -1.5040 oh        1 MOL     -0.682557
     76 H29         3.8850    6.7930   -0.2360 hn        1 MOL      0.205368
     77 H30         1.7230    7.5130   -2.0180 h1        1 MOL      0.142260
     78 H31         1.3490    9.4800   -0.2410 h1        1 MOL      0.020160
     79 H32         3.8680    9.2210   -1.6000 ho        1 MOL      0.413388
     80 H33         2.7510    8.1870    1.5530 hc        1 MOL      0.052069
     81 H34         4.0400    9.0540    0.5990 hc        1 MOL      0.052069
     82 H35         2.7230    9.8920    1.4100 hc        1 MOL      0.052069
     83 N9          0.6400    5.6590    0.1510 n         1 MOL     -0.258592
     84 C26        -0.5310    4.9270    0.7020 c3        1 MOL     -0.007867
     85 C27        -0.5960    3.4890    0.2560 c         1 MOL      0.358137
     86 O15         0.5100    3.1040   -0.1430 o         1 MOL     -0.347759
     87 C28        -0.6200    4.8870    2.2240 c3        1 MOL      0.091909
     88 C29         0.5820    4.2950    2.8710 c3        1 MOL     -0.073547
     89 C30        -0.8610    6.3950    2.5920 c3        1 MOL     -0.261385
     90 C31         0.4970    3.8730    4.3390 c3        1 MOL     -0.246585
     91 H36         1.5010    5.1390    0.1740 hn        1 MOL      0.196488
     92 H37        -1.4880    5.3010    0.3320 h1        1 MOL      0.056057
     93 H38        -1.5150    4.3590    2.5340 hc        1 MOL      0.018120
     94 H39         1.4110    4.9780    2.6760 hc        1 MOL      0.089720
     95 H40         0.9930    3.4410    2.3310 hc        1 MOL      0.089720
     96 H41        -1.6410    6.6960    1.8920 hc        1 MOL      0.065144
     97 H42        -1.3120    6.6470    3.5530 hc        1 MOL      0.065144
     98 H43         0.0960    6.8960    2.4970 hc        1 MOL      0.065144
     99 H44        -0.4420    3.3260    4.4230 hc        1 MOL      0.060785
    100 H45         1.3030    3.2290    4.6670 hc        1 MOL      0.060785
    101 H46         0.4190    4.7360    5.0110 hc        1 MOL      0.060785
    102 N10        -1.7730    2.7980    0.2790 n         1 MOL     -0.355908
    103 C32        -1.8500    1.4760   -0.3830 c3        1 MOL     -0.225554
    104 C33        -3.3380    0.9620   -0.4740 c         1 MOL      0.510852
    105 O16        -3.4960   -0.2250   -0.5010 o         1 MOL     -0.523493
    106 C34        -0.9580    0.4100    0.3040 c3        1 MOL     -0.052947
    107 C35        -0.6390   -0.8200   -0.6350 c         1 MOL      0.792452
    108 O17        -0.1910   -1.8400   -0.0880 o         1 MOL     -0.774449
    109 O18        -0.9120   -0.7980   -1.8820 o         1 MOL     -0.774449
    110 H47        -2.5760    3.1760    0.7680 hn        1 MOL      0.252796
    111 H48        -1.4860    1.7400   -1.3750 h1        1 MOL      0.118853
    112 H49        -1.4250    0.0690    1.2260 hc        1 MOL      0.065775
    113 H50        -0.0260    0.9480    0.4910 hc        1 MOL      0.065775
    114 N11        -4.3380    1.8640   -0.3800 n         1 MOL     -0.309352
    115 C36        -5.7250    1.4560   -0.6950 c3        1 MOL      0.005746
    116 C37        -6.3410    0.4730    0.3100 c         1 MOL      0.505751
    117 O19        -6.1850    0.8500    1.5020 o         1 MOL     -0.553222
    118 C38        -6.6290    2.7010   -0.8680 c3        1 MOL     -0.282467
    119 C39        -8.0590    2.3120   -1.2100 ca        1 MOL      0.197958
    120 C40        -8.5300    2.2440   -2.5530 ca        1 MOL     -0.230917
    121 C41        -8.9170    1.9870   -0.1910 ca        1 MOL     -0.230917
    122 C42        -9.8950    2.0060   -2.7900 ca        1 MOL     -0.093080
    123 C43       -10.2900    1.7770   -0.3940 ca        1 MOL     -0.093080
    124 C44       -10.7870    1.8260   -1.7100 ca        1 MOL     -0.151849
    125 H51        -4.1180    2.8500   -0.4960 hn        1 MOL      0.238141
    126 H52        -5.6310    0.9410   -1.6580 h1        1 MOL      0.073780
    127 H53        -6.3520    3.2710   -1.7600 hc        1 MOL      0.109461
    128 H54        -6.5880    3.3220    0.0260 hc        1 MOL      0.109461
    129 H55        -7.9460    2.5820   -3.3950 ha        1 MOL      0.120749
    130 H56        -8.4670    2.0130    0.7930 ha        1 MOL      0.120749
    131 H57       -10.3240    2.1150   -3.7730 ha        1 MOL      0.108953
    132 H58       -10.9270    1.5370    0.4410 ha        1 MOL      0.108953
    133 H59       -11.8340    1.6200   -1.8790 ha        1 MOL      0.107273
    134 N12        -6.8230   -0.7080   -0.0530 n         1 MOL      0.009327
    135 C45        -7.3840   -1.6220    0.9210 c3        1 MOL      0.187651
    136 C46        -6.4380   -1.9650    2.1110 c         1 MOL      0.203350
    137 O20        -6.9260   -2.1430    3.2180 o         1 MOL     -0.469371
    138 C47        -7.8160   -2.8320    0.0770 c3        1 MOL     -0.219936
    139 C48        -7.2000   -2.6720   -1.2940 c3        1 MOL      0.126472
    140 C49        -7.0470   -1.1660   -1.4330 c3        1 MOL     -0.022390
    141 H60        -8.2740   -1.1310    1.3200 h1        1 MOL      0.007414
    142 H61        -7.5060   -3.7320    0.6020 hc        1 MOL      0.080875
    143 H62        -8.8910   -2.7800   -0.0450 hc        1 MOL      0.080875
    144 H63        -6.2210   -3.1500   -1.3380 hc        1 MOL     -0.037942
    145 H64        -7.8100   -3.0130   -2.1270 hc        1 MOL     -0.037942
    146 H65        -6.2300   -0.8280   -2.0780 h1        1 MOL     -0.003767
    147 H66        -7.9690   -0.6870   -1.7510 h1        1 MOL     -0.003767
    148 N13        -5.1030   -2.0800    1.7680 n         1 MOL     -0.001986
    149 C50        -4.2010   -2.4080    2.8870 c3        1 MOL     -0.281756
    150 C51        -3.9050   -1.1950    3.8180 c         1 MOL      0.402404
    151 O21        -3.1940   -1.2950    4.8360 o         1 MOL     -0.545114
    152 C52        -2.9770   -3.1740    2.3760 c3        1 MOL      0.116539
    153 C53        -3.3780   -4.4840    1.6740 c3        1 MOL     -0.063484
    154 C54        -2.1570   -5.3140    1.3250 c         1 MOL      0.677481
    155 O22        -1.5160   -4.9320    0.3330 o         1 MOL     -0.694106
    156 O23        -1.8200   -6.2670    2.0410 o         1 MOL     -0.694106
    157 H67        -4.8160   -2.1960    0.8080 hn        1 MOL      0.164045
    158 H68        -4.7490   -3.1410    3.4780 h1        1 MOL      0.162110
    159 H69        -2.3990   -3.4500    3.2620 hc        1 MOL      0.032145
    160 H70        -2.3360   -2.5700    1.7380 hc        1 MOL      0.032145
    161 H71        -3.8790   -4.2470    0.7330 hc        1 MOL     -0.053956
    162 H72        -4.0800   -5.0520    2.2840 hc        1 MOL     -0.053956
    163 N14        -4.3090    0.0100    3.4380 n         1 MOL      0.004852
    164 C55        -4.2810    1.2170    4.2330 c3        1 MOL     -0.205772
    165 H73        -3.6370    1.0660    5.1000 h1        1 MOL      0.079454
    166 H74        -3.8940    2.0400    3.6320 h1        1 MOL      0.079454
    167 H75        -5.2910    1.4550    4.5680 h1        1 MOL      0.079454
    168 H76        -4.7460    0.0480    2.5290 hn        1 MOL      0.089080
    169 Ca1        -0.8960   -3.6320   -1.8760 Ca        1 MOL      1.706111
    170 O24        -2.3450   -2.9370   -4.1070 oh        1 MOL     -0.783097
    171 H77        -3.2760   -2.7790   -3.9300 ho        1 MOL      0.385505
    172 H78        -2.2810   -2.8850   -5.0620 ho        1 MOL      0.385505
    173 O25        -2.7140   -5.4640   -2.6450 oh        1 MOL     -0.783097
    174 H79        -3.1710   -6.1520   -2.1800 ho        1 MOL      0.385505
    175 H80        -3.2390   -5.3240   -3.4420 ho        1 MOL      0.385505
    176 O26         1.1300   -2.4680   -3.1990 oh        1 MOL     -0.783097
    177 H81         1.5510   -2.4180   -4.0540 ho        1 MOL      0.385505
    178 H82         1.3570   -1.6520   -2.7570 ho        1 MOL      0.385505
    179 O27        -0.0430   -5.0190   -4.2730 oh        1 MOL     -0.783097
    180 H83         0.2250   -4.5080   -5.0430 ho        1 MOL      0.385505
    181 H84        -0.1900   -5.9010   -4.6050 ho        1 MOL      0.385505
    182 O28        -3.4000   -2.5780   -1.4610 oh        1 MOL     -0.783097
    183 H85        -4.0070   -2.5180   -2.2020 ho        1 MOL      0.385505
    184 H86        -3.5260   -1.7670   -0.9710 ho        1 MOL      0.385505
@<TRIPOS>BOND
     1    1    2 1   
     2    1    4 1   
     3    1    5 1   
     4    1    6 1   
     5    2    3 2   
     6    2    7 1   
     7    7    8 1   
     8    7   15 1   
     9    8    9 1   
    10    8   11 1   
    11    8   16 1   
    12    9   10 2   
    13    9   19 1   
    14   11   12 1   
    15   11   17 1   
    16   11   18 1   
    17   12   13 1   
    18   12   14 1   
    19   19   20 1   
    20   19   24 1   
    21   20   21 1   
    22   20   23 1   
    23   20   25 1   
    24   21   22 2   
    25   21   29 1   
    26   23   26 1   
    27   23   27 1   
    28   23   28 1   
    29   29   30 1   
    30   29   37 1   
    31   30   31 1   
    32   30   33 1   
    33   30   38 1   
    34   31   32 2   
    35   31   41 1   
    36   33   34 1   
    37   33   39 1   
    38   33   40 1   
    39   34   35 1   
    40   34   36 1   
    41   41   42 1   
    42   41   45 1   
    43   42   43 1   
    44   42   46 1   
    45   42   47 1   
    46   43   44 2   
    47   43   48 1   
    48   48   49 1   
    49   48   56 1   
    50   49   50 1   
    51   49   52 1   
    52   49   57 1   
    53   50   51 2   
    54   50   62 1   
    55   52   53 1   
    56   52   58 1   
    57   52   59 1   
    58   53   54 1   
    59   53   55 2   
    60   54   60 1   
    61   54   61 1   
    62   62   63 1   
    63   62   66 1   
    64   63   64 1   
    65   63   67 1   
    66   63   68 1   
    67   64   65 2   
    68   64   69 1   
    69   69   70 1   
    70   69   76 1   
    71   70   71 1   
    72   70   73 1   
    73   70   77 1   
    74   71   72 2   
    75   71   83 1   
    76   73   74 1   
    77   73   75 1   
    78   73   78 1   
    79   74   80 1   
    80   74   81 1   
    81   74   82 1   
    82   75   79 1   
    83   83   84 1   
    84   83   91 1   
    85   84   85 1   
    86   84   87 1   
    87   84   92 1   
    88   85   86 2   
    89   85  102 1   
    90   87   88 1   
    91   87   89 1   
    92   87   93 1   
    93   88   90 1   
    94   88   94 1   
    95   88   95 1   
    96   89   96 1   
    97   89   97 1   
    98   89   98 1   
    99   90   99 1   
   100   90  100 1   
   101   90  101 1   
   102  102  103 1   
   103  102  110 1   
   104  103  104 1   
   105  103  106 1   
   106  103  111 1   
   107  104  105 2   
   108  104  114 1   
   109  106  107 1   
   110  106  112 1   
   111  106  113 1   
   112  107  108 1   
   113  107  109 1   
   114  114  115 1   
   115  114  125 1   
   116  115  116 1   
   117  115  118 1   
   118  115  126 1   
   119  116  117 2   
   120  116  134 1   
   121  118  119 1   
   122  118  127 1   
   123  118  128 1   
   124  119  120 ar  
   125  119  121 ar  
   126  120  122 ar  
   127  120  129 1   
   128  121  123 ar  
   129  121  130 1   
   130  122  124 ar  
   131  122  131 1   
   132  123  124 ar  
   133  123  132 1   
   134  124  133 1   
   135  134  135 1   
   136  134  140 1   
   137  135  136 1   
   138  135  138 1   
   139  135  141 1   
   140  136  137 2   
   141  136  148 1   
   142  138  139 1   
   143  138  142 1   
   144  138  143 1   
   145  139  140 1   
   146  139  144 1   
   147  139  145 1   
   148  140  146 1   
   149  140  147 1   
   150  148  149 1   
   151  148  157 1   
   152  149  150 1   
   153  149  152 1   
   154  149  158 1   
   155  150  151 2   
   156  150  163 1   
   157  152  153 1   
   158  152  159 1   
   159  152  160 1   
   160  153  154 1   
   161  153  161 1   
   162  153  162 1   
   163  154  155 1   
   164  154  156 1   
   165  163  164 1   
   166  163  168 1   
   167  164  165 1   
   168  164  166 1   
   169  164  167 1   
   170  170  171 1   
   171  170  172 1   
   172  173  174 1   
   173  173  175 1   
   174  176  177 1   
   175  176  178 1   
   176  179  180 1   
   177  179  181 1   
   178  182  183 1   
   179  182  184 1   
@<TRIPOS>SUBSTRUCTURE
     1 MOL         1 TEMP              0 ****  ****    0 ROOT
