@<TRIPOS>MOLECULE
MOL
  192   187     1     0     0
SMALL
resp


@<TRIPOS>ATOM
      1 C1         -8.8570    1.0290   -2.0340 c3        1 MOL     -0.489272
      2 C2         -7.7350    0.4410   -1.1430 c         1 MOL      0.722498
      3 O1         -6.5780    0.2340   -1.5000 o         1 MOL     -0.685143
      4 H1         -9.0550    2.0570   -1.7350 hc        1 MOL      0.127269
      5 H2         -8.5410    1.0080   -3.0770 hc        1 MOL      0.127269
      6 H3         -9.7640    0.4350   -1.9170 hc        1 MOL      0.127269
      7 N1         -8.1750    0.1580    0.0820 n         1 MOL     -0.374564
      8 C3         -7.3240   -0.1700    1.2830 c3        1 MOL     -0.174257
      9 C4         -6.8680   -1.6170    1.2790 c         1 MOL      0.586338
     10 O2         -6.9320   -2.3030    2.2910 o         1 MOL     -0.448447
     11 C5         -7.9260    0.2570    2.6090 c3        1 MOL     -0.173741
     12 C6         -9.3000   -0.3640    2.9320 c         1 MOL      0.713849
     13 O3        -10.2100   -0.3880    2.0440 o         1 MOL     -0.633457
     14 O4         -9.5860   -0.7230    4.0820 o         1 MOL     -0.633457
     15 H4         -9.1740    0.1570    0.2310 hn        1 MOL      0.189937
     16 H5         -6.3590    0.3130    1.1330 h1        1 MOL      0.156911
     17 H6         -8.1420    1.3210    2.6880 hc        1 MOL      0.079235
     18 H7         -7.2220   -0.0000    3.3970 hc        1 MOL      0.079235
     19 N2         -6.4910   -2.1800    0.0960 n         1 MOL     -0.541043
     20 C7         -6.0840   -3.6000   -0.0640 c3        1 MOL      0.145676
     21 C8         -4.5780   -3.8140    0.3870 c         1 MOL      0.409727
     22 O5         -4.2810   -4.7120    1.1700 o         1 MOL     -0.525904
     23 C9         -6.2750   -4.1470   -1.4810 c3        1 MOL     -0.032730
     24 C10        -7.8080   -4.1240   -1.7780 c3        1 MOL      0.034635
     25 C11        -8.0380   -4.5160   -3.2510 c3        1 MOL      0.014587
     26 C12        -9.5430   -4.7830   -3.4400 c3        1 MOL      0.080433
     27 N3         -9.7910   -5.2130   -4.7990 n4        1 MOL     -0.235587
     28 H8         -6.3160   -1.5950   -0.7160 hn        1 MOL      0.362771
     29 H9         -6.6840   -4.2160    0.6060 h1        1 MOL      0.075117
     30 H10        -5.7080   -5.0720   -1.5720 hc        1 MOL      0.015453
     31 H11        -5.8760   -3.4030   -2.1810 hc        1 MOL      0.015453
     32 H12        -8.0600   -3.0590   -1.7090 hc        1 MOL      0.000087
     33 H13        -8.3510   -4.7570   -1.0670 hc        1 MOL      0.000087
     34 H14        -7.4820   -5.4260   -3.4650 hc        1 MOL      0.001344
     35 H15        -7.6970   -3.6900   -3.8910 hc        1 MOL      0.001344
     36 H16       -10.0320   -3.8280   -3.2740 hx        1 MOL      0.064312
     37 H17        -9.8840   -5.4910   -2.6740 hx        1 MOL      0.064312
     38 H18        -9.1960   -5.9230   -5.1950 hn        1 MOL      0.249102
     39 H19       -10.6990   -5.6460   -4.8970 hn        1 MOL      0.249102
     40 H20        -9.7240   -4.4240   -5.4130 hn        1 MOL      0.249102
     41 N4         -3.6320   -2.8960    0.1400 n         1 MOL     -0.358968
     42 C13        -3.5970   -1.7380   -0.7650 c3        1 MOL      0.035630
     43 C14        -3.7580   -0.3830   -0.0500 c         1 MOL      0.374107
     44 O6         -3.8770   -0.3330    1.1810 o         1 MOL     -0.430948
     45 C15        -2.3350   -1.8280   -1.6420 c3        1 MOL     -0.361901
     46 C16        -1.0250   -1.8500   -0.9770 c         1 MOL      0.713837
     47 O7         -0.7540   -1.0250   -0.0930 o         1 MOL     -0.655897
     48 O8         -0.2300   -2.7770   -1.2790 o         1 MOL     -0.655897
     49 H21        -2.8280   -3.1080    0.7180 hn        1 MOL      0.342389
     50 H22        -4.3720   -1.8460   -1.5240 h1        1 MOL      0.105010
     51 H23        -2.2720   -0.9930   -2.3370 hc        1 MOL      0.086771
     52 H24        -2.4570   -2.7280   -2.2540 hc        1 MOL      0.086771
     53 N5         -3.7790    0.7320   -0.7870 n         1 MOL     -0.333370
     54 C17        -3.9590    2.1320   -0.3460 c3        1 MOL     -0.240370
     55 C18        -2.7590    2.8140    0.3660 c         1 MOL      0.836701
     56 O9         -1.7210    2.1550    0.5880 o         1 MOL     -0.723465
     57 H25        -3.9050    0.6340   -1.7840 hn        1 MOL      0.285365
     58 H26        -4.8120    2.3040    0.3050 h1        1 MOL      0.123674
     59 H27        -4.0740    2.6440   -1.3090 h1        1 MOL      0.123674
     60 N6         -2.9280    4.0450    0.7910 n         1 MOL     -0.606521
     61 C19        -1.9020    4.9250    1.4830 c3        1 MOL      0.398617
     62 C20        -2.1860    6.4240    1.3480 c         1 MOL      0.391676
     63 O10        -3.3330    6.8510    1.4760 o         1 MOL     -0.503701
     64 C21        -1.7550    4.6740    2.9910 c3        1 MOL     -0.299048
     65 C22        -1.6000    3.1890    3.3150 c         1 MOL      0.737124
     66 O11        -2.4770    2.5990    3.9130 o         1 MOL     -0.673323
     67 O12        -0.5730    2.6100    3.0120 o         1 MOL     -0.673323
     68 H28        -3.8030    4.4330    0.4440 hn        1 MOL      0.282659
     69 H29        -0.8520    4.7320    1.2460 h1        1 MOL     -0.044318
     70 H30        -2.5760    5.1330    3.5310 hc        1 MOL      0.077217
     71 H31        -0.9310    5.1790    3.4760 hc        1 MOL      0.077217
     72 N7         -1.1850    7.3140    1.4970 n         1 MOL     -0.487512
     73 C23         0.2850    7.1160    1.7240 c3        1 MOL      0.006236
     74 C24         1.0610    6.4680    0.5830 c         1 MOL      0.576908
     75 O13         0.7570    6.6220   -0.5800 o         1 MOL     -0.493034
     76 H32        -1.5380    8.2280    1.7400 hn        1 MOL      0.332712
     77 H33         0.4350    6.6120    2.6740 h1        1 MOL      0.072204
     78 H34         0.7400    8.0820    1.9360 h1        1 MOL      0.072204
     79 N8          2.1060    5.6800    0.9570 n         1 MOL     -0.609272
     80 C25         2.8040    4.8780   -0.1070 c3        1 MOL     -0.014075
     81 C26         1.9220    3.7020   -0.6330 c         1 MOL      0.668065
     82 O14         1.1930    3.0360    0.1370 o         1 MOL     -0.672347
     83 C27         4.1530    4.4230    0.5130 c3        1 MOL      0.471949
     84 C28         4.9870    3.7210   -0.6270 c3        1 MOL     -0.569615
     85 O15         3.9380    3.4780    1.5330 oh        1 MOL     -0.651782
     86 H35         2.3120    5.4650    1.9260 hn        1 MOL      0.298967
     87 H36         3.0580    5.5450   -0.9330 h1        1 MOL      0.086299
     88 H37         4.6970    5.3220    0.8070 h1        1 MOL     -0.012744
     89 H38         3.5430    3.9590    2.2660 ho        1 MOL      0.402604
     90 H39         5.9270    3.5090   -0.1100 hc        1 MOL      0.165986
     91 H40         4.6190    2.7320   -0.8520 hc        1 MOL      0.165986
     92 H41         5.0320    4.3700   -1.5090 hc        1 MOL      0.165986
     93 N9          1.7820    3.5470   -1.9610 n         1 MOL     -0.492794
     94 C29         1.0680    2.4610   -2.6590 c3        1 MOL     -0.094328
     95 C30         1.4310    1.0400   -2.1750 c         1 MOL      0.557752
     96 O16         1.2260    0.6720   -1.0180 o         1 MOL     -0.537474
     97 C31        -0.4290    2.6170   -2.8350 c3        1 MOL      0.139202
     98 C32        -0.7760    4.0150   -3.3810 c3        1 MOL     -0.101268
     99 C33        -1.0210    1.5490   -3.7740 c3        1 MOL     -0.408768
    100 C34        -1.6340    4.7350   -2.3570 c3        1 MOL      0.115015
    101 H42         2.2560    4.1900   -2.5700 hn        1 MOL      0.306241
    102 H43         1.4220    2.5000   -3.6950 h1        1 MOL      0.061362
    103 H44        -1.0460    2.4940   -1.9390 hc        1 MOL      0.105542
    104 H45        -1.2590    4.0350   -4.3550 hc        1 MOL      0.023094
    105 H46         0.1030    4.6660   -3.4280 hc        1 MOL      0.023094
    106 H47        -2.0280    1.8790   -4.0410 hc        1 MOL      0.099251
    107 H48        -0.4730    1.5100   -4.7200 hc        1 MOL      0.099251
    108 H49        -0.8960    0.5720   -3.3180 hc        1 MOL      0.099251
    109 H50        -1.0540    4.8450   -1.4490 hc        1 MOL     -0.029483
    110 H51        -1.9030    5.7160   -2.7530 hc        1 MOL     -0.029483
    111 H52        -2.5820    4.2290   -2.1830 hc        1 MOL     -0.029483
    112 N10         1.9530    0.1810   -3.1060 n         1 MOL     -0.130780
    113 C35         2.3530   -1.2190   -2.8900 c3        1 MOL     -0.104056
    114 C36         3.8480   -1.4200   -2.7750 c         1 MOL      0.459337
    115 O17         4.3430   -2.5670   -2.8480 o         1 MOL     -0.546998
    116 C37         1.6860   -2.1600   -3.9720 c3        1 MOL      0.322974
    117 C38         2.0300   -1.7430   -5.4200 c3        1 MOL     -0.240640
    118 O18         0.2770   -1.9330   -3.8980 oh        1 MOL     -0.545543
    119 H53         2.0820    0.5040   -4.0510 hn        1 MOL      0.191018
    120 H54         1.9460   -1.4690   -1.9130 h1        1 MOL      0.105864
    121 H55         2.0680   -3.1710   -3.8290 h1        1 MOL      0.046160
    122 H56         0.0620   -2.2260   -3.0040 ho        1 MOL      0.277217
    123 H57         1.5750   -2.4320   -6.1350 hc        1 MOL      0.053766
    124 H58         1.7110   -0.7390   -5.6930 hc        1 MOL      0.053766
    125 H59         3.1190   -1.7930   -5.4870 hc        1 MOL      0.053766
    126 N11         4.6150   -0.3330   -2.7840 n         1 MOL     -0.103295
    127 C39         6.0360   -0.1470   -2.8230 c3        1 MOL      0.021323
    128 C40         6.6290   -0.6410   -1.5080 c         1 MOL      0.442491
    129 O19         6.9770    0.1780   -0.6610 o         1 MOL     -0.473864
    130 C41         6.4350    1.3200   -3.1210 c3        1 MOL      0.530639
    131 C42         7.8150    1.5460   -3.6920 c3        1 MOL     -0.486333
    132 O20         5.5080    1.8900   -4.0460 oh        1 MOL     -0.686173
    133 H60         4.1060    0.5370   -2.7770 hn        1 MOL      0.018768
    134 H61         6.3810   -0.7870   -3.6330 h1        1 MOL      0.044516
    135 H62         6.3360    1.8860   -2.1950 h1        1 MOL     -0.084272
    136 H63         5.7990    2.7990   -4.1980 ho        1 MOL      0.412068
    137 H64         7.8680    0.9250   -4.5880 hc        1 MOL      0.120450
    138 H65         8.0390    2.5850   -3.9210 hc        1 MOL      0.120450
    139 H66         8.5090    1.2070   -2.9270 hc        1 MOL      0.120450
    140 N12         6.5440   -1.9850   -1.2320 n         1 MOL     -0.738376
    141 C43         6.4580   -2.4600    0.1400 c3        1 MOL      0.447644
    142 C44         5.1530   -2.1420    0.8400 c         1 MOL      0.391979
    143 O21         4.5160   -1.0970    0.5190 o         1 MOL     -0.499495
    144 C45         7.7050   -2.2680    0.9970 c3        1 MOL     -0.430524
    145 C46         9.0590   -2.3570    0.2130 c3        1 MOL      0.164099
    146 C47        10.2720   -2.2270    1.1580 c3        1 MOL     -0.043468
    147 C48        11.5650   -2.3570    0.4010 c3        1 MOL     -0.154236
    148 N13        11.9270   -3.7190    0.0560 n4        1 MOL     -0.228541
    149 H67         6.0240   -2.3900   -2.0010 hn        1 MOL      0.352629
    150 H68         6.4990   -3.5580    0.1300 h1        1 MOL      0.010044
    151 H69         7.8420   -2.8610    1.9030 hc        1 MOL      0.118787
    152 H70         7.7030   -1.2400    1.3780 hc        1 MOL      0.118787
    153 H71         9.0700   -1.5450   -0.5200 hc        1 MOL      0.011623
    154 H72         9.0400   -3.3170   -0.2870 hc        1 MOL      0.011623
    155 H73        10.2030   -2.9930    1.9270 hc        1 MOL      0.058081
    156 H74        10.2480   -1.2420    1.6470 hc        1 MOL      0.058081
    157 H75        12.3590   -2.0400    1.0820 hx        1 MOL      0.125475
    158 H76        11.4850   -1.6640   -0.4370 hx        1 MOL      0.125475
    159 H77        11.7360   -4.2730    0.8790 hn        1 MOL      0.235435
    160 H78        11.3790   -4.0940   -0.7100 hn        1 MOL      0.235435
    161 H79        12.9130   -3.8260   -0.1490 hn        1 MOL      0.235435
    162 N14         4.5920   -2.9370    1.7030 n         1 MOL     -0.387802
    163 C49         3.4130   -2.6450    2.4430 c3        1 MOL      0.176289
    164 C50         2.1840   -2.5030    1.4840 c         1 MOL      0.171694
    165 O22         1.5120   -1.4690    1.5670 o         1 MOL     -0.449975
    166 C51         3.1210   -3.6990    3.5140 c3        1 MOL      0.200906
    167 C52         4.0730   -3.6660    4.7180 c3        1 MOL     -0.185264
    168 C53         4.0260   -4.9140    5.5790 c         1 MOL      0.634628
    169 O23         3.5990   -4.7600    6.7600 o         1 MOL     -0.639762
    170 O24         4.1930   -6.0030    5.0300 o         1 MOL     -0.639762
    171 H80         5.1270   -3.7790    1.8590 hn        1 MOL      0.234626
    172 H81         3.5170   -1.6870    2.9570 h1        1 MOL      0.020058
    173 H82         3.0680   -4.7030    3.1140 hc        1 MOL      0.011688
    174 H83         2.1010   -3.4830    3.8440 hc        1 MOL      0.011688
    175 H84         3.8150   -2.7580    5.2730 hc        1 MOL     -0.002208
    176 H85         5.1090   -3.5810    4.3880 hc        1 MOL     -0.002208
    177 N15         1.9320   -3.3790    0.5340 n         1 MOL     -0.138245
    178 C54         2.3900   -4.7330    0.2880 c3        1 MOL     -0.019280
    179 H86         3.1040   -5.0200    1.0600 h1        1 MOL      0.021774
    180 H87         1.5390   -5.4140    0.3090 h1        1 MOL      0.021774
    181 H88         2.8720   -4.7820   -0.6880 h1        1 MOL      0.021774
    182 H89         1.2140   -3.1180   -0.1200 hn        1 MOL      0.288625
    183 Ca1         0.3830    0.8520    1.3920 Ca        1 MOL      1.743581
    184 O25         1.0440    0.2110    4.0660 oh        1 MOL     -0.871428
    185 H90         1.9570    0.2230    4.3580 ho        1 MOL      0.421114
    186 H91         0.5320    0.3540    4.8580 ho        1 MOL      0.421114
    187 O26         3.1440    0.9370    1.3930 oh        1 MOL     -0.871428
    188 H92         3.7430    0.2180    1.2040 ho        1 MOL      0.421114
    189 H93         3.6600    1.7240    1.2380 ho        1 MOL      0.421114
    190 O27        -1.7680    0.0270    2.6680 oh        1 MOL     -0.871428
    191 H94        -2.0950    0.8340    3.0630 ho        1 MOL      0.421114
    192 H95        -2.4650   -0.2650    2.0850 ho        1 MOL      0.421114
@<TRIPOS>BOND
     1    1    2 1   
     2    1    4 1   
     3    1    5 1   
     4    1    6 1   
     5    2    3 2   
     6    2    7 1   
     7    7    8 1   
     8    7   15 1   
     9    8    9 1   
    10    8   11 1   
    11    8   16 1   
    12    9   10 2   
    13    9   19 1   
    14   11   12 1   
    15   11   17 1   
    16   11   18 1   
    17   12   13 1   
    18   12   14 1   
    19   19   20 1   
    20   19   28 1   
    21   20   21 1   
    22   20   23 1   
    23   20   29 1   
    24   21   22 2   
    25   21   41 1   
    26   23   24 1   
    27   23   30 1   
    28   23   31 1   
    29   24   25 1   
    30   24   32 1   
    31   24   33 1   
    32   25   26 1   
    33   25   34 1   
    34   25   35 1   
    35   26   27 1   
    36   26   36 1   
    37   26   37 1   
    38   27   38 1   
    39   27   39 1   
    40   27   40 1   
    41   41   42 1   
    42   41   49 1   
    43   42   43 1   
    44   42   45 1   
    45   42   50 1   
    46   43   44 2   
    47   43   53 1   
    48   45   46 1   
    49   45   51 1   
    50   45   52 1   
    51   46   47 1   
    52   46   48 1   
    53   53   54 1   
    54   53   57 1   
    55   54   55 1   
    56   54   58 1   
    57   54   59 1   
    58   55   56 2   
    59   55   60 1   
    60   60   61 1   
    61   60   68 1   
    62   61   62 1   
    63   61   64 1   
    64   61   69 1   
    65   62   63 2   
    66   62   72 1   
    67   64   65 1   
    68   64   70 1   
    69   64   71 1   
    70   65   66 1   
    71   65   67 1   
    72   72   73 1   
    73   72   76 1   
    74   73   74 1   
    75   73   77 1   
    76   73   78 1   
    77   74   75 2   
    78   74   79 1   
    79   79   80 1   
    80   79   86 1   
    81   80   81 1   
    82   80   83 1   
    83   80   87 1   
    84   81   82 2   
    85   81   93 1   
    86   83   84 1   
    87   83   85 1   
    88   83   88 1   
    89   84   90 1   
    90   84   91 1   
    91   84   92 1   
    92   85   89 1   
    93   93   94 1   
    94   93  101 1   
    95   94   95 1   
    96   94   97 1   
    97   94  102 1   
    98   95   96 2   
    99   95  112 1   
   100   97   98 1   
   101   97   99 1   
   102   97  103 1   
   103   98  100 1   
   104   98  104 1   
   105   98  105 1   
   106   99  106 1   
   107   99  107 1   
   108   99  108 1   
   109  100  109 1   
   110  100  110 1   
   111  100  111 1   
   112  112  113 1   
   113  112  119 1   
   114  113  114 1   
   115  113  116 1   
   116  113  120 1   
   117  114  115 2   
   118  114  126 1   
   119  116  117 1   
   120  116  118 1   
   121  116  121 1   
   122  117  123 1   
   123  117  124 1   
   124  117  125 1   
   125  118  122 1   
   126  126  127 1   
   127  126  133 1   
   128  127  128 1   
   129  127  130 1   
   130  127  134 1   
   131  128  129 2   
   132  128  140 1   
   133  130  131 1   
   134  130  132 1   
   135  130  135 1   
   136  131  137 1   
   137  131  138 1   
   138  131  139 1   
   139  132  136 1   
   140  140  141 1   
   141  140  149 1   
   142  141  142 1   
   143  141  144 1   
   144  141  150 1   
   145  142  143 2   
   146  142  162 1   
   147  144  145 1   
   148  144  151 1   
   149  144  152 1   
   150  145  146 1   
   151  145  153 1   
   152  145  154 1   
   153  146  147 1   
   154  146  155 1   
   155  146  156 1   
   156  147  148 1   
   157  147  157 1   
   158  147  158 1   
   159  148  159 1   
   160  148  160 1   
   161  148  161 1   
   162  162  163 1   
   163  162  171 1   
   164  163  164 1   
   165  163  166 1   
   166  163  172 1   
   167  164  165 2   
   168  164  177 1   
   169  166  167 1   
   170  166  173 1   
   171  166  174 1   
   172  167  168 1   
   173  167  175 1   
   174  167  176 1   
   175  168  169 1   
   176  168  170 1   
   177  177  178 1   
   178  177  182 1   
   179  178  179 1   
   180  178  180 1   
   181  178  181 1   
   182  184  185 1   
   183  184  186 1   
   184  187  188 1   
   185  187  189 1   
   186  190  191 1   
   187  190  192 1   
@<TRIPOS>SUBSTRUCTURE
     1 MOL         1 TEMP              0 ****  ****    0 ROOT
