@<TRIPOS>MOLECULE
MOL
  195   189     1     0     0
SMALL
resp


@<TRIPOS>ATOM
      1 C1          4.5910   -5.1380    1.5980 c3        1 MOL     -0.449189
      2 C2          3.7540   -4.1030    0.7270 c         1 MOL      0.765956
      3 O1          4.3340   -3.5380   -0.1640 o         1 MOL     -0.626871
      4 H1          4.0480   -6.0810    1.6610 hc        1 MOL      0.117350
      5 H2          5.5600   -5.3080    1.1300 hc        1 MOL      0.117350
      6 H3          4.7360   -4.7360    2.6010 hc        1 MOL      0.117350
      7 N1          2.4200   -3.8320    0.9050 n         1 MOL     -0.594124
      8 C3          1.4420   -4.5500    1.7100 c3        1 MOL     -0.007920
      9 C4          0.5490   -5.5130    0.8500 c         1 MOL      0.282428
     10 O2         -0.1840   -6.3310    1.3830 o         1 MOL     -0.521271
     11 C5          0.6590   -3.4320    2.4920 c3        1 MOL      0.068317
     12 C6          1.5300   -2.2630    2.9500 c         1 MOL      0.855506
     13 O3          2.6000   -2.4840    3.6530 o         1 MOL     -0.855756
     14 O4          1.1170   -1.1250    2.7220 o         1 MOL     -0.855756
     15 H4          2.0180   -3.1740    0.2600 hn        1 MOL      0.330303
     16 H5          2.0020   -5.1690    2.4210 h1        1 MOL      0.096561
     17 H6          0.1970   -3.9020    3.3660 hc        1 MOL     -0.006013
     18 H7         -0.1480   -3.0380    1.8730 hc        1 MOL     -0.006013
     19 N2          0.4370   -5.3310   -0.4450 n         1 MOL      0.274875
     20 C7          0.0090   -6.3260   -1.3500 c3        1 MOL     -0.474030
     21 C8         -1.4560   -6.3250   -1.6530 c         1 MOL      0.485496
     22 O5         -1.9940   -7.3120   -2.1900 o         1 MOL     -0.545917
     23 C9          0.8810   -6.1800   -2.6640 c3        1 MOL      0.356352
     24 C10         0.8910   -4.7420   -3.1570 c3        1 MOL     -0.004691
     25 C11         2.3490   -6.7010   -2.3490 c3        1 MOL     -0.432447
     26 C12         1.3740   -4.4800   -4.5530 c3        1 MOL     -0.376293
     27 H8          0.9300   -4.5250   -0.8070 hn        1 MOL     -0.027509
     28 H9          0.2530   -7.2830   -0.8760 h1        1 MOL      0.164644
     29 H10         0.4910   -6.8680   -3.4230 hc        1 MOL     -0.021107
     30 H11         1.5180   -4.1250   -2.5170 hc        1 MOL      0.089708
     31 H12        -0.1360   -4.3720   -3.1650 hc        1 MOL      0.089708
     32 H13         2.8410   -6.5770   -3.3160 hc        1 MOL      0.090115
     33 H14         2.7900   -6.0620   -1.5880 hc        1 MOL      0.090115
     34 H15         2.2220   -7.7590   -2.1280 hc        1 MOL      0.090115
     35 H16         1.0690   -3.4720   -4.8190 hc        1 MOL      0.085327
     36 H17         2.4620   -4.4950   -4.4650 hc        1 MOL      0.085327
     37 H18         1.1280   -5.2400   -5.2840 hc        1 MOL      0.085327
     38 N3         -2.1670   -5.2160   -1.2970 n         1 MOL     -0.213833
     39 C13        -3.5300   -4.9160   -1.7480 c3        1 MOL      0.184257
     40 C14        -4.4340   -4.3080   -0.6840 c         1 MOL      0.417128
     41 O6         -3.8950   -3.7760    0.3240 o         1 MOL     -0.521381
     42 C15        -3.4980   -3.9980   -3.0020 c3        1 MOL     -0.215632
     43 C16        -4.8330   -3.8880   -3.8440 c         1 MOL      0.670310
     44 O7         -5.7860   -4.7160   -3.6330 o         1 MOL     -0.702207
     45 O8         -4.9530   -3.0070   -4.7230 o         1 MOL     -0.702207
     46 H19        -1.7050   -4.4450   -0.8160 hn        1 MOL      0.080332
     47 H20        -4.0750   -5.8100   -2.0650 h1        1 MOL     -0.004632
     48 H21        -2.7180   -4.2780   -3.7080 hc        1 MOL      0.020390
     49 H22        -3.3050   -2.9550   -2.7350 hc        1 MOL      0.020390
     50 N4         -5.7770   -4.4120   -0.6810 n         1 MOL     -0.353882
     51 C17        -6.5590   -3.9010    0.5290 c3        1 MOL     -0.210403
     52 C18        -6.5160   -2.3710    0.6560 c         1 MOL      0.782821
     53 O9         -6.5030   -1.6820   -0.3470 o         1 MOL     -0.533416
     54 H23        -6.2640   -4.8660   -1.4430 hn        1 MOL      0.284242
     55 H24        -6.0170   -4.2440    1.4070 h1        1 MOL      0.100368
     56 H25        -7.6230   -4.1650    0.5450 h1        1 MOL      0.100368
     57 N5         -6.7030   -1.8820    1.8760 n         1 MOL     -0.867962
     58 C19        -6.6820   -0.4660    2.2360 c3        1 MOL      0.659967
     59 C20        -8.1150    0.0360    2.5200 c         1 MOL      0.418557
     60 O10        -8.9550   -0.6810    3.0870 o         1 MOL     -0.512596
     61 C21        -5.6440   -0.2440    3.3630 c3        1 MOL     -0.250466
     62 C22        -5.8690   -1.0440    4.6270 c         1 MOL      0.673032
     63 O11        -6.9230   -0.8280    5.2100 o         1 MOL     -0.718695
     64 O12        -5.0750   -1.9700    4.9180 o         1 MOL     -0.718695
     65 H26        -6.5350   -2.4730    2.6890 hn        1 MOL      0.383233
     66 H27        -6.3000    0.0390    1.3490 h1        1 MOL     -0.065724
     67 H28        -5.5640    0.8120    3.6360 hc        1 MOL     -0.000108
     68 H29        -4.6760   -0.6110    3.0220 hc        1 MOL     -0.000108
     69 N6         -8.4380    1.2960    2.2880 n         1 MOL     -0.574470
     70 C23        -7.7480    2.1710    1.4410 c3        1 MOL      0.183945
     71 C24        -7.7530    1.7960   -0.0410 c         1 MOL      0.455465
     72 O13        -8.4110    0.8530   -0.5380 o         1 MOL     -0.482774
     73 H30        -9.4240    1.4510    2.4600 hn        1 MOL      0.308551
     74 H31        -6.7260    2.3630    1.7420 h1        1 MOL      0.001900
     75 H32        -8.2360    3.1440    1.5230 h1        1 MOL      0.001900
     76 N7         -7.2340    2.6560   -0.9010 n         1 MOL     -0.494033
     77 C25        -5.9810    3.4340   -0.9200 c3        1 MOL      0.226336
     78 C26        -4.7210    2.7090   -0.5830 c         1 MOL      0.583158
     79 O14        -4.6830    1.7580    0.1930 o         1 MOL     -0.519756
     80 C27        -6.0320    4.7460   -0.1440 c3        1 MOL      0.066613
     81 C28        -7.2210    5.6230   -0.4200 c3        1 MOL     -0.349951
     82 C29        -7.2360    6.8100    0.4830 c         1 MOL      0.751329
     83 N8         -8.1710    6.9240    1.4320 n         1 MOL     -0.820584
     84 O15        -6.5200    7.7930    0.3980 o         1 MOL     -0.577293
     85 H33        -7.5710    2.4950   -1.8350 hn        1 MOL      0.285757
     86 H34        -5.9270    3.6950   -1.9740 h1        1 MOL      0.021255
     87 H35        -5.1250    5.3110   -0.3670 hc        1 MOL     -0.013036
     88 H36        -6.0150    4.5420    0.9220 hc        1 MOL     -0.013036
     89 H37        -8.1530    5.0840   -0.2540 hc        1 MOL      0.070977
     90 H38        -7.2310    5.9860   -1.4420 hc        1 MOL      0.070977
     91 H39        -8.8810    6.2050    1.4300 hn        1 MOL      0.364695
     92 H40        -8.2390    7.6860    2.0980 hn        1 MOL      0.364695
     93 N9         -3.6360    3.1990   -1.1220 n         1 MOL     -0.587110
     94 C30        -2.1750    2.9800   -0.8500 c3        1 MOL     -0.026987
     95 C31        -1.5170    2.1530   -1.9510 c         1 MOL      0.883585
     96 O16        -1.8270    2.3520   -3.0850 o         1 MOL     -0.616413
     97 C32        -1.4350    4.3340   -0.7210 c3        1 MOL      0.697319
     98 C33         0.0190    4.0730   -0.2910 c3        1 MOL     -0.507625
     99 C34        -2.0840    5.3300    0.1750 c3        1 MOL     -0.507625
    100 H41        -3.8490    3.9250   -1.7900 hn        1 MOL      0.261092
    101 H42        -2.0240    2.4960    0.1140 h1        1 MOL      0.040048
    102 H43        -1.4180    4.7400   -1.7300 hc        1 MOL     -0.198412
    103 H44         0.5360    3.5650   -1.1050 hc        1 MOL      0.116915
    104 H45         0.5920    4.9860   -0.1040 hc        1 MOL      0.116915
    105 H46         0.1690    3.4410    0.5800 hc        1 MOL      0.116915
    106 H47        -1.3380    6.0540    0.5170 hc        1 MOL      0.116915
    107 H48        -2.9430    5.7700   -0.3270 hc        1 MOL      0.116915
    108 H49        -2.4310    4.7770    1.0460 hc        1 MOL      0.116915
    109 N10        -0.7270    1.0900   -1.6330 n         1 MOL     -0.782310
    110 C35        -0.2910    0.1690   -2.6730 c3        1 MOL      0.570037
    111 C36         1.2370    0.2660   -3.1280 c         1 MOL      0.365032
    112 O17         1.9110   -0.7180   -3.3000 o         1 MOL     -0.485758
    113 C37        -0.7420   -1.2200   -2.3860 c3        1 MOL     -0.783451
    114 C38        -0.3440   -1.7820   -1.0090 c         1 MOL      0.761234
    115 N11        -1.3160   -1.8930   -0.1690 n         1 MOL     -0.577277
    116 O18         0.8170   -2.0140   -0.7830 o         1 MOL     -0.562347
    117 H50        -0.3640    0.9880   -0.7050 hn        1 MOL      0.311333
    118 H51        -0.7430    0.4000   -3.6360 h1        1 MOL      0.036957
    119 H52        -0.4870   -1.8630   -3.2310 hc        1 MOL      0.208927
    120 H53        -1.8240   -1.1200   -2.3160 hc        1 MOL      0.208927
    121 H54        -2.1160   -1.3140   -0.4000 hn        1 MOL      0.328295
    122 H55        -1.0990   -2.1070    0.7970 hn        1 MOL      0.328295
    123 N12         1.7130    1.4970   -3.2400 n         1 MOL     -0.229175
    124 C39         3.0910    1.7810   -3.3490 c3        1 MOL      0.039342
    125 C40         3.7190    2.2380   -1.9800 c         1 MOL      0.761881
    126 O19         3.0120    2.6030   -1.0290 o         1 MOL     -0.582883
    127 C41         3.2070    2.9010   -4.3980 c3        1 MOL      0.223898
    128 C42         2.5770    4.1840   -4.0710 ca        1 MOL     -0.108985
    129 C43         3.2500    5.1120   -3.2540 ca        1 MOL     -0.008392
    130 C44         1.2200    4.3880   -4.4000 ca        1 MOL     -0.008392
    131 C45         2.5690    6.2520   -2.6950 ca        1 MOL     -0.415750
    132 C46         0.5820    5.5760   -3.9700 ca        1 MOL     -0.415750
    133 C47         1.2250    6.4440   -3.0460 ca        1 MOL      0.446630
    134 O20         0.4720    7.4010   -2.4410 oh        1 MOL     -0.507602
    135 H56         1.0800    2.2090   -2.8830 hn        1 MOL     -0.042498
    136 H57         3.6020    0.9260   -3.7930 h1        1 MOL      0.048236
    137 H58         2.8840    2.6050   -5.3950 hc        1 MOL     -0.061648
    138 H59         4.2660    3.0790   -4.5630 hc        1 MOL     -0.061648
    139 H60         4.2960    4.9760   -3.0140 ha        1 MOL      0.112097
    140 H61         0.6480    3.6580   -4.9620 ha        1 MOL      0.112097
    141 H62         3.0050    6.8370   -1.8980 ha        1 MOL      0.203739
    142 H63        -0.4990    5.6670   -4.0410 ha        1 MOL      0.203739
    143 H64        -0.3330    7.6050   -2.9270 ho        1 MOL      0.350365
    144 N13         5.0420    2.1330   -1.8810 n         1 MOL     -0.742564
    145 C48         5.7630    2.3090   -0.6020 c3        1 MOL      0.397617
    146 C49         6.9800    1.3570   -0.4960 c         1 MOL      0.138623
    147 O21         8.0560    1.6740   -1.0100 o         1 MOL     -0.483633
    148 C50         6.1690    3.7970   -0.2750 c3        1 MOL     -0.115530
    149 C51         6.7480    3.9380    1.1280 c3        1 MOL     -0.067117
    150 C52         6.8010    5.3590    1.5970 c         1 MOL      0.659925
    151 O22         7.2510    5.6930    2.7420 o         1 MOL     -0.734893
    152 O23         6.4360    6.2270    0.7590 o         1 MOL     -0.734893
    153 H65         5.6060    1.8290   -2.6590 hn        1 MOL      0.339250
    154 H66         5.1910    1.9750    0.2490 h1        1 MOL     -0.113917
    155 H67         5.3120    4.4320   -0.5080 hc        1 MOL      0.062671
    156 H68         6.9390    4.0860   -0.9880 hc        1 MOL      0.062671
    157 H69         7.7540    3.5650    1.3180 hc        1 MOL      0.013807
    158 H70         6.1250    3.4640    1.8780 hc        1 MOL      0.013807
    159 N14         6.7770    0.2380    0.2060 n         1 MOL      0.081994
    160 C53         7.5230   -0.9860    0.1090 c3        1 MOL     -0.089317
    161 C54         7.3330   -1.6890   -1.2220 c         1 MOL      0.413992
    162 O24         8.2960   -2.3290   -1.6180 o         1 MOL     -0.551791
    163 C55         7.1720   -1.9910    1.1800 c3        1 MOL     -0.111790
    164 C56         7.5170   -1.6390    2.6640 c3        1 MOL     -0.090867
    165 C57         6.6040   -0.5820    3.2360 c         1 MOL      0.508623
    166 O25         7.1420    0.1240    4.1290 o         1 MOL     -0.647858
    167 O26         5.3610   -0.5480    2.9960 o         1 MOL     -0.647858
    168 H71         5.9330    0.1560    0.7510 hn        1 MOL      0.064788
    169 H72         8.5720   -0.8030    0.3580 h1        1 MOL      0.092758
    170 H73         7.6980   -2.9280    1.0300 hc        1 MOL      0.061992
    171 H74         6.1170   -2.2450    1.0960 hc        1 MOL      0.061992
    172 H75         8.4970   -1.1530    2.6120 hc        1 MOL      0.044609
    173 H76         7.5690   -2.5020    3.3260 hc        1 MOL      0.044609
    174 N15         6.2070   -1.5120   -1.9270 n         1 MOL     -0.070345
    175 C58         6.0710   -1.8870   -3.3520 c3        1 MOL     -0.220903
    176 H77         5.0620   -2.2570   -3.5350 h1        1 MOL      0.085579
    177 H78         6.2560   -1.0140   -3.9780 h1        1 MOL      0.085579
    178 H79         6.7930   -2.6670   -3.5940 h1        1 MOL      0.085579
    179 H80         5.4310   -0.9970   -1.5320 hn        1 MOL      0.183676
    180 Ca1         3.0840    0.2200    3.8170 Ca        1 MOL      1.700278
    181 O27         1.4400   -0.6430    6.0980 oh        1 MOL     -0.757176
    182 H81         1.4640   -0.2020    6.9410 ho        1 MOL      0.382879
    183 H82         1.2680   -1.5600    6.3140 ho        1 MOL      0.382879
    184 O28         4.2580    2.7020    4.2600 oh        1 MOL     -0.757176
    185 H83         3.9340    3.5710    4.0220 ho        1 MOL      0.382879
    186 H84         5.1840    2.8250    4.4380 ho        1 MOL      0.382879
    187 O29         3.0670    0.6940    1.1370 oh        1 MOL     -0.757176
    188 H85         2.9640    1.4740    0.5900 ho        1 MOL      0.382879
    189 H86         2.9590   -0.0400    0.5220 ho        1 MOL      0.382879
    190 O30         1.0820    1.9340    3.4250 oh        1 MOL     -0.757176
    191 H87         0.4980    2.5370    3.8890 ho        1 MOL      0.382879
    192 H88         0.6690    1.8310    2.5600 ho        1 MOL      0.382879
    193 O31         4.2620    0.4760    6.7600 oh        1 MOL     -0.757176
    194 H89         3.7410    0.3750    7.5600 ho        1 MOL      0.382879
    195 H90         4.9640   -0.1700    6.8590 ho        1 MOL      0.382879
@<TRIPOS>BOND
     1    1    2 1   
     2    1    4 1   
     3    1    5 1   
     4    1    6 1   
     5    2    3 2   
     6    2    7 1   
     7    7    8 1   
     8    7   15 1   
     9    8    9 1   
    10    8   11 1   
    11    8   16 1   
    12    9   10 2   
    13    9   19 1   
    14   11   12 1   
    15   11   17 1   
    16   11   18 1   
    17   12   13 1   
    18   12   14 1   
    19   19   20 1   
    20   19   27 1   
    21   20   21 1   
    22   20   23 1   
    23   20   28 1   
    24   21   22 2   
    25   21   38 1   
    26   23   24 1   
    27   23   25 1   
    28   23   29 1   
    29   24   26 1   
    30   24   30 1   
    31   24   31 1   
    32   25   32 1   
    33   25   33 1   
    34   25   34 1   
    35   26   35 1   
    36   26   36 1   
    37   26   37 1   
    38   38   39 1   
    39   38   46 1   
    40   39   40 1   
    41   39   42 1   
    42   39   47 1   
    43   40   41 2   
    44   40   50 1   
    45   42   43 1   
    46   42   48 1   
    47   42   49 1   
    48   43   44 1   
    49   43   45 1   
    50   50   51 1   
    51   50   54 1   
    52   51   52 1   
    53   51   55 1   
    54   51   56 1   
    55   52   53 2   
    56   52   57 1   
    57   57   58 1   
    58   57   65 1   
    59   58   59 1   
    60   58   61 1   
    61   58   66 1   
    62   59   60 2   
    63   59   69 1   
    64   61   62 1   
    65   61   67 1   
    66   61   68 1   
    67   62   63 1   
    68   62   64 1   
    69   69   70 1   
    70   69   73 1   
    71   70   71 1   
    72   70   74 1   
    73   70   75 1   
    74   71   72 2   
    75   71   76 1   
    76   76   77 1   
    77   76   85 1   
    78   77   78 1   
    79   77   80 1   
    80   77   86 1   
    81   78   79 2   
    82   78   93 1   
    83   80   81 1   
    84   80   87 1   
    85   80   88 1   
    86   81   82 1   
    87   81   89 1   
    88   81   90 1   
    89   82   83 1   
    90   82   84 2   
    91   83   91 1   
    92   83   92 1   
    93   93   94 1   
    94   93  100 1   
    95   94   95 1   
    96   94   97 1   
    97   94  101 1   
    98   95   96 2   
    99   95  109 1   
   100   97   98 1   
   101   97   99 1   
   102   97  102 1   
   103   98  103 1   
   104   98  104 1   
   105   98  105 1   
   106   99  106 1   
   107   99  107 1   
   108   99  108 1   
   109  109  110 1   
   110  109  117 1   
   111  110  111 1   
   112  110  113 1   
   113  110  118 1   
   114  111  112 2   
   115  111  123 1   
   116  113  114 1   
   117  113  119 1   
   118  113  120 1   
   119  114  115 1   
   120  114  116 2   
   121  115  121 1   
   122  115  122 1   
   123  123  124 1   
   124  123  135 1   
   125  124  125 1   
   126  124  127 1   
   127  124  136 1   
   128  125  126 2   
   129  125  144 1   
   130  127  128 1   
   131  127  137 1   
   132  127  138 1   
   133  128  129 ar  
   134  128  130 ar  
   135  129  131 ar  
   136  129  139 1   
   137  130  132 ar  
   138  130  140 1   
   139  131  133 ar  
   140  131  141 1   
   141  132  133 ar  
   142  132  142 1   
   143  133  134 1   
   144  134  143 1   
   145  144  145 1   
   146  144  153 1   
   147  145  146 1   
   148  145  148 1   
   149  145  154 1   
   150  146  147 2   
   151  146  159 1   
   152  148  149 1   
   153  148  155 1   
   154  148  156 1   
   155  149  150 1   
   156  149  157 1   
   157  149  158 1   
   158  150  151 1   
   159  150  152 1   
   160  159  160 1   
   161  159  168 1   
   162  160  161 1   
   163  160  163 1   
   164  160  169 1   
   165  161  162 2   
   166  161  174 1   
   167  163  164 1   
   168  163  170 1   
   169  163  171 1   
   170  164  165 1   
   171  164  172 1   
   172  164  173 1   
   173  165  166 1   
   174  165  167 1   
   175  174  175 1   
   176  174  179 1   
   177  175  176 1   
   178  175  177 1   
   179  175  178 1   
   180  181  182 1   
   181  181  183 1   
   182  184  185 1   
   183  184  186 1   
   184  187  188 1   
   185  187  189 1   
   186  190  191 1   
   187  190  192 1   
   188  193  194 1   
   189  193  195 1   
@<TRIPOS>SUBSTRUCTURE
     1 MOL         1 TEMP              0 ****  ****    0 ROOT
