@<TRIPOS>MOLECULE
MOL
  181   177     1     0     0
SMALL
resp


@<TRIPOS>ATOM
      1 C1          0.6930    6.6880   -1.8390 c3        1 MOL     -0.423589
      2 C2          2.0920    6.9530   -1.1590 c         1 MOL      0.647031
      3 O1          2.2610    7.5640   -0.1000 o         1 MOL     -0.599645
      4 H1         -0.0970    6.7820   -1.0930 hc        1 MOL      0.110559
      5 H2          0.5300    7.4180   -2.6330 hc        1 MOL      0.110559
      6 H3          0.6770    5.6830   -2.2600 hc        1 MOL      0.110559
      7 N1          3.1100    6.3820   -1.7660 n         1 MOL     -0.545799
      8 C3          4.5080    6.5810   -1.3370 c3        1 MOL      0.262959
      9 C4          4.9210    5.5740   -0.3140 c         1 MOL      0.572737
     10 O2          5.8030    4.7700   -0.5610 o         1 MOL     -0.565449
     11 C5          5.4160    6.5920   -2.6130 c3        1 MOL     -0.181371
     12 C6          6.8290    7.0640   -2.2390 c         1 MOL      0.695547
     13 O3          7.6010    7.2150   -3.1900 o         1 MOL     -0.722833
     14 O4          7.0290    7.5980   -1.0960 o         1 MOL     -0.722833
     15 H4          2.8430    5.8280   -2.5630 hn        1 MOL      0.288640
     16 H5          4.5560    7.5270   -0.7850 h1        1 MOL      0.020544
     17 H6          4.9760    7.2440   -3.3730 hc        1 MOL      0.016503
     18 H7          5.4370    5.5970   -3.0570 hc        1 MOL      0.016503
     19 N2          4.2370    5.5390    0.8270 n         1 MOL     -0.722513
     20 C7          4.5450    4.5160    1.9150 c3        1 MOL      0.518466
     21 C8          3.7440    3.1640    1.8740 c         1 MOL      0.567866
     22 O5          2.5870    3.1350    1.6150 o         1 MOL     -0.577494
     23 C9          4.5140    5.1980    3.3150 c3        1 MOL     -0.447954
     24 H8          3.6520    6.3480    0.9740 hn        1 MOL      0.358859
     25 H9          5.6120    4.2970    1.8670 h1        1 MOL      0.032410
     26 H10         4.9140    6.2020    3.1590 hc        1 MOL      0.105170
     27 H11         3.4650    5.2640    3.5860 hc        1 MOL      0.105170
     28 H12         5.1280    4.6320    4.0110 hc        1 MOL      0.105170
     29 N3          4.3990    1.9770    1.8830 n         1 MOL     -0.690607
     30 C10         5.8280    1.6850    1.8860 c3        1 MOL      0.269283
     31 C11         6.2270    0.3380    1.2010 c         1 MOL      0.402494
     32 O6          5.3250   -0.4730    0.9500 o         1 MOL     -0.429140
     33 C12         6.2450    1.6290    3.3650 c3        1 MOL     -0.474276
     34 C13         5.4770    0.5490    4.2070 c         1 MOL      0.832609
     35 O7          4.3510    0.7370    4.6730 o         1 MOL     -0.721486
     36 O8          6.0050   -0.5660    4.4250 o         1 MOL     -0.721486
     37 H13         3.8160    1.1610    1.7310 hn        1 MOL      0.401381
     38 H14         6.2940    2.5310    1.3730 h1        1 MOL      0.020642
     39 H15         6.0630    2.5710    3.8950 hc        1 MOL      0.099857
     40 H16         7.2690    1.2860    3.4940 hc        1 MOL      0.099857
     41 N4          7.5040    0.0670    0.9260 n         1 MOL     -0.462998
     42 C14         7.9660   -1.2420    0.4120 c3        1 MOL      0.307484
     43 C15         8.9860   -1.1850   -0.7470 c         1 MOL      0.491219
     44 O9          9.8190   -0.3240   -0.7550 o         1 MOL     -0.542708
     45 H17         8.2220    0.7250    1.2080 hn        1 MOL      0.296370
     46 H18         7.1290   -1.8840    0.1410 h1        1 MOL     -0.021458
     47 H19         8.4640   -1.7670    1.2280 h1        1 MOL     -0.021458
     48 N5          9.0660   -2.1290   -1.6550 n         1 MOL     -0.615036
     49 C16         8.1780   -3.3290   -1.8200 c3        1 MOL      0.336268
     50 C17         6.7510   -2.9110   -2.1520 c         1 MOL      0.586559
     51 O10         6.5750   -1.9770   -2.9200 o         1 MOL     -0.533533
     52 C18         8.8010   -4.3660   -2.7330 c3        1 MOL     -0.409176
     53 C19         8.0750   -5.7070   -2.6110 c         1 MOL      0.694119
     54 N6          7.9970   -6.4620   -3.7190 n         1 MOL     -0.819610
     55 O11         7.4500   -5.9380   -1.6120 o         1 MOL     -0.521853
     56 H20         9.7900   -1.9420   -2.3380 hn        1 MOL      0.354305
     57 H21         8.0570   -3.8560   -0.8760 h1        1 MOL     -0.032377
     58 H22         9.8700   -4.4780   -2.5730 hc        1 MOL      0.097279
     59 H23         8.7210   -3.8310   -3.6820 hc        1 MOL      0.097279
     60 H24         8.5230   -6.1120   -4.5120 hn        1 MOL      0.380367
     61 H25         7.5260   -7.3550   -3.7270 hn        1 MOL      0.380367
     62 N7          5.7680   -3.6750   -1.7010 n         1 MOL     -0.361630
     63 C20         4.3670   -3.2830   -2.0660 c3        1 MOL     -0.184470
     64 C21         3.3390   -4.4020   -1.6780 c         1 MOL      0.626791
     65 O12         3.4830   -5.5590   -2.0240 o         1 MOL     -0.546831
     66 H26         5.8900   -4.5190   -1.1590 hn        1 MOL      0.273842
     67 H27         4.2440   -3.0250   -3.1180 h1        1 MOL      0.078795
     68 H28         4.1960   -2.3600   -1.5080 h1        1 MOL      0.078795
     69 N8          2.3000   -3.8730   -1.1460 n         1 MOL     -0.356357
     70 C22         1.1130   -4.6310   -0.7480 c3        1 MOL     -0.300867
     71 C23        -0.0550   -3.6300   -0.6600 c         1 MOL      0.737722
     72 O13         0.0840   -2.5230   -0.2640 o         1 MOL     -0.627456
     73 C24         1.1430   -5.2900    0.6180 c3        1 MOL      0.397976
     74 C25         2.2060   -6.4190    0.6570 c3        1 MOL     -0.484125
     75 O14         1.3770   -4.4610    1.6270 oh        1 MOL     -0.532920
     76 H29         2.3040   -2.8780   -1.0280 hn        1 MOL      0.311049
     77 H30         0.8640   -5.3750   -1.5020 h1        1 MOL      0.133413
     78 H31         0.1300   -5.6600    0.7630 h1        1 MOL      0.004325
     79 H32         1.2470   -4.9500    2.4390 ho        1 MOL      0.401511
     80 H33         3.2130   -6.1480    0.3490 hc        1 MOL      0.119507
     81 H34         2.1550   -7.0290    1.5560 hc        1 MOL      0.119507
     82 H35         1.8700   -7.1560   -0.0790 hc        1 MOL      0.119507
     83 N9         -1.2770   -4.0830   -1.0230 n         1 MOL     -0.463861
     84 C26        -2.5120   -3.2980   -0.8260 c3        1 MOL     -0.003556
     85 C27        -3.0660   -3.4430    0.6560 c         1 MOL      0.278302
     86 O15        -3.1440   -4.5060    1.2370 o         1 MOL     -0.508451
     87 C28        -3.5230   -3.7890   -1.8840 c3        1 MOL      0.018797
     88 C29        -4.7370   -2.8230   -1.9430 c3        1 MOL      0.184426
     89 C30        -2.9920   -4.1050   -3.2950 c3        1 MOL     -0.353381
     90 C31        -5.7780   -3.2320   -2.9780 c3        1 MOL     -0.214230
     91 H36        -1.3310   -5.0370   -1.3450 hn        1 MOL      0.277629
     92 H37        -2.3170   -2.2450   -1.0210 h1        1 MOL      0.104067
     93 H38        -3.9630   -4.7370   -1.5730 hc        1 MOL      0.068900
     94 H39        -4.5410   -1.7530   -2.0890 hc        1 MOL     -0.042075
     95 H40        -5.2270   -2.8880   -0.9680 hc        1 MOL     -0.042075
     96 H41        -2.4420   -3.2950   -3.7830 hc        1 MOL      0.088371
     97 H42        -2.2500   -4.9110   -3.2880 hc        1 MOL      0.088371
     98 H43        -3.7730   -4.4500   -3.9680 hc        1 MOL      0.088371
     99 H44        -6.7660   -2.8200   -2.7640 hc        1 MOL      0.045375
    100 H45        -5.4680   -2.7370   -3.9040 hc        1 MOL      0.045375
    101 H46        -5.8110   -4.3180   -3.0740 hc        1 MOL      0.045375
    102 N10        -3.7070   -2.3790    1.2080 n         1 MOL     -0.180559
    103 C32        -4.5710   -2.3870    2.3590 c3        1 MOL      0.070790
    104 C33        -5.9760   -1.7650    2.2420 c         1 MOL      0.326298
    105 O16        -6.7100   -1.7780    3.2250 o         1 MOL     -0.525987
    106 C34        -3.7950   -1.6910    3.4880 c3        1 MOL     -0.102675
    107 C35        -2.3000   -1.6050    3.4980 c         1 MOL      0.784097
    108 O17        -1.6530   -2.6100    3.1760 o         1 MOL     -0.782691
    109 O18        -1.7310   -0.5240    3.6840 o         1 MOL     -0.782691
    110 H47        -3.6190   -1.5200    0.6890 hn        1 MOL      0.374257
    111 H48        -4.7330   -3.4250    2.6450 h1        1 MOL      0.095445
    112 H49        -4.0790   -2.1590    4.4310 hc        1 MOL      0.024941
    113 H50        -4.1840   -0.6840    3.3920 hc        1 MOL      0.024941
    114 N11        -6.3540   -1.2310    1.0660 n         1 MOL     -0.370241
    115 C36        -7.5960   -0.4850    0.8100 c3        1 MOL      0.614933
    116 C37        -7.4150    0.9370    0.1410 c         1 MOL      0.070649
    117 O19        -7.6860    1.2310   -1.0230 o         1 MOL     -0.357626
    118 C38        -8.4770   -1.3480   -0.0430 c3        1 MOL     -0.330812
    119 C39        -9.8960   -0.8770   -0.3080 ca        1 MOL      0.154188
    120 C40       -10.7030   -0.2780    0.6970 ca        1 MOL     -0.214721
    121 C41       -10.3070   -0.7350   -1.6490 ca        1 MOL     -0.214721
    122 C42       -11.9330    0.3730    0.3020 ca        1 MOL     -0.073478
    123 C43       -11.5590   -0.2250   -2.0320 ca        1 MOL     -0.073478
    124 C44       -12.3670    0.3300   -1.0660 ca        1 MOL     -0.178984
    125 H51        -5.6660   -1.3320    0.3280 hn        1 MOL      0.104274
    126 H52        -8.1340   -0.3230    1.7490 h1        1 MOL     -0.030826
    127 H53        -8.6140   -2.2030    0.6230 hc        1 MOL      0.086202
    128 H54        -8.0510   -1.6880   -0.9910 hc        1 MOL      0.086202
    129 H55       -10.2820   -0.2430    1.6930 ha        1 MOL      0.124679
    130 H56        -9.6120   -1.1150   -2.3790 ha        1 MOL      0.124679
    131 H57       -12.4870    0.9560    1.0260 ha        1 MOL      0.102157
    132 H58       -11.8180   -0.1980   -3.0780 ha        1 MOL      0.102157
    133 H59       -13.2060    0.9280   -1.3810 ha        1 MOL      0.117080
    134 N12        -6.9010    1.8800    0.9630 n         1 MOL     -0.048579
    135 C45        -6.5540    3.2050    0.5870 c3        1 MOL      0.076043
    136 C46        -5.7430    3.3690   -0.7720 c         1 MOL      0.142667
    137 O20        -5.9050    4.3750   -1.4100 o         1 MOL     -0.446638
    138 C47        -5.7650    3.7520    1.7010 c3        1 MOL      0.074083
    139 C48        -6.2580    3.0290    2.9800 c3        1 MOL     -0.269768
    140 C49        -6.5670    1.7070    2.3960 c3        1 MOL      0.002184
    141 H60        -7.4910    3.7360    0.4780 h1        1 MOL      0.044249
    142 H61        -4.7120    3.5250    1.5150 hc        1 MOL      0.019843
    143 H62        -5.9570    4.8090    1.8580 hc        1 MOL      0.019843
    144 H63        -5.4430    2.8710    3.6860 hc        1 MOL      0.090443
    145 H64        -7.1450    3.5570    3.3350 hc        1 MOL      0.090443
    146 H65        -5.6760    1.0800    2.4470 h1        1 MOL      0.064353
    147 H66        -7.3680    1.2300    2.9660 h1        1 MOL      0.064353
    148 N13        -4.9140    2.3510   -1.1380 n         1 MOL      0.003384
    149 C50        -4.0730    2.5050   -2.3390 c3        1 MOL     -0.269139
    150 C51        -4.9470    2.4960   -3.6200 c         1 MOL      0.445862
    151 O21        -4.6210    3.1510   -4.5940 o         1 MOL     -0.536306
    152 C52        -3.1230    1.3130   -2.4910 c3        1 MOL      0.208856
    153 C53        -2.0620    1.0950   -1.4290 c3        1 MOL     -0.337908
    154 C54        -2.4970    0.4470   -0.1450 c         1 MOL      1.075922
    155 O22        -1.6840   -0.1790    0.5620 o         1 MOL     -0.873323
    156 O23        -3.6740    0.5070    0.2000 o         1 MOL     -0.873323
    157 H67        -4.8440    1.5210   -0.5560 hn        1 MOL      0.266227
    158 H68        -3.4150    3.3720   -2.3250 h1        1 MOL      0.145726
    159 H69        -2.5660    1.4200   -3.4230 hc        1 MOL     -0.035278
    160 H70        -3.7470    0.4280   -2.5680 hc        1 MOL     -0.035278
    161 H71        -1.6450    2.0330   -1.0750 hc        1 MOL      0.056589
    162 H72        -1.2510    0.4810   -1.8240 hc        1 MOL      0.056589
    163 N14        -6.1400    1.8330   -3.5810 n         1 MOL     -0.043868
    164 C55        -7.1600    1.7560   -4.6740 c3        1 MOL     -0.341940
    165 H73        -6.7520    1.1870   -5.5110 h1        1 MOL      0.119956
    166 H74        -8.0560    1.2600   -4.3010 h1        1 MOL      0.119956
    167 H75        -7.4120    2.7620   -5.0070 h1        1 MOL      0.119956
    168 H76        -6.3960    1.3800   -2.7140 hn        1 MOL      0.086878
    169 Ca1         0.3330   -1.2310    2.0170 Ca        1 MOL      1.791447
    170 O24         2.2080   -0.0950    3.7370 oh        1 MOL     -0.875428
    171 H77         3.0400    0.2810    4.0330 ho        1 MOL      0.409826
    172 H78         1.5700    0.1980    4.3900 ho        1 MOL      0.409826
    173 O25         0.5090    1.3540    1.5780 oh        1 MOL     -0.875428
    174 H79         1.3060    1.8860    1.5830 ho        1 MOL      0.409826
    175 H80        -0.2010    1.9990    1.5560 ho        1 MOL      0.409826
    176 O26         2.9110   -1.7990    0.9740 oh        1 MOL     -0.875428
    177 H81         3.5990   -1.1880    0.7080 ho        1 MOL      0.409826
    178 H82         3.3870   -2.5440    1.3510 ho        1 MOL      0.409826
    179 O27         1.0930   -2.6840    4.1680 oh        1 MOL     -0.875428
    180 H83         1.1070   -3.6160    4.3690 ho        1 MOL      0.409826
    181 H84         1.3610   -2.2650    4.9930 ho        1 MOL      0.409826
@<TRIPOS>BOND
     1    1    2 1   
     2    1    4 1   
     3    1    5 1   
     4    1    6 1   
     5    2    3 2   
     6    2    7 1   
     7    7    8 1   
     8    7   15 1   
     9    8    9 1   
    10    8   11 1   
    11    8   16 1   
    12    9   10 2   
    13    9   19 1   
    14   11   12 1   
    15   11   17 1   
    16   11   18 1   
    17   12   13 1   
    18   12   14 1   
    19   19   20 1   
    20   19   24 1   
    21   20   21 1   
    22   20   23 1   
    23   20   25 1   
    24   21   22 2   
    25   21   29 1   
    26   23   26 1   
    27   23   27 1   
    28   23   28 1   
    29   29   30 1   
    30   29   37 1   
    31   30   31 1   
    32   30   33 1   
    33   30   38 1   
    34   31   32 2   
    35   31   41 1   
    36   33   34 1   
    37   33   39 1   
    38   33   40 1   
    39   34   35 1   
    40   34   36 1   
    41   41   42 1   
    42   41   45 1   
    43   42   43 1   
    44   42   46 1   
    45   42   47 1   
    46   43   44 2   
    47   43   48 1   
    48   48   49 1   
    49   48   56 1   
    50   49   50 1   
    51   49   52 1   
    52   49   57 1   
    53   50   51 2   
    54   50   62 1   
    55   52   53 1   
    56   52   58 1   
    57   52   59 1   
    58   53   54 1   
    59   53   55 2   
    60   54   60 1   
    61   54   61 1   
    62   62   63 1   
    63   62   66 1   
    64   63   64 1   
    65   63   67 1   
    66   63   68 1   
    67   64   65 2   
    68   64   69 1   
    69   69   70 1   
    70   69   76 1   
    71   70   71 1   
    72   70   73 1   
    73   70   77 1   
    74   71   72 2   
    75   71   83 1   
    76   73   74 1   
    77   73   75 1   
    78   73   78 1   
    79   74   80 1   
    80   74   81 1   
    81   74   82 1   
    82   75   79 1   
    83   83   84 1   
    84   83   91 1   
    85   84   85 1   
    86   84   87 1   
    87   84   92 1   
    88   85   86 2   
    89   85  102 1   
    90   87   88 1   
    91   87   89 1   
    92   87   93 1   
    93   88   90 1   
    94   88   94 1   
    95   88   95 1   
    96   89   96 1   
    97   89   97 1   
    98   89   98 1   
    99   90   99 1   
   100   90  100 1   
   101   90  101 1   
   102  102  103 1   
   103  102  110 1   
   104  103  104 1   
   105  103  106 1   
   106  103  111 1   
   107  104  105 2   
   108  104  114 1   
   109  106  107 1   
   110  106  112 1   
   111  106  113 1   
   112  107  108 1   
   113  107  109 1   
   114  114  115 1   
   115  114  125 1   
   116  115  116 1   
   117  115  118 1   
   118  115  126 1   
   119  116  117 2   
   120  116  134 1   
   121  118  119 1   
   122  118  127 1   
   123  118  128 1   
   124  119  120 ar  
   125  119  121 ar  
   126  120  122 ar  
   127  120  129 1   
   128  121  123 ar  
   129  121  130 1   
   130  122  124 ar  
   131  122  131 1   
   132  123  124 ar  
   133  123  132 1   
   134  124  133 1   
   135  134  135 1   
   136  134  140 1   
   137  135  136 1   
   138  135  138 1   
   139  135  141 1   
   140  136  137 2   
   141  136  148 1   
   142  138  139 1   
   143  138  142 1   
   144  138  143 1   
   145  139  140 1   
   146  139  144 1   
   147  139  145 1   
   148  140  146 1   
   149  140  147 1   
   150  148  149 1   
   151  148  157 1   
   152  149  150 1   
   153  149  152 1   
   154  149  158 1   
   155  150  151 2   
   156  150  163 1   
   157  152  153 1   
   158  152  159 1   
   159  152  160 1   
   160  153  154 1   
   161  153  161 1   
   162  153  162 1   
   163  154  155 1   
   164  154  156 1   
   165  163  164 1   
   166  163  168 1   
   167  164  165 1   
   168  164  166 1   
   169  164  167 1   
   170  170  171 1   
   171  170  172 1   
   172  173  174 1   
   173  173  175 1   
   174  176  177 1   
   175  176  178 1   
   176  179  180 1   
   177  179  181 1   
@<TRIPOS>SUBSTRUCTURE
     1 MOL         1 TEMP              0 ****  ****    0 ROOT
