@<TRIPOS>MOLECULE
MOL
  192   187     1     0     0
SMALL
resp


@<TRIPOS>ATOM
      1 C1          5.5760    0.9960    6.0850 c3        1 MOL     -0.436478
      2 C2          5.2120    1.0210    4.6040 c         1 MOL      0.703335
      3 O1          4.8380    2.0230    3.9760 o         1 MOL     -0.579909
      4 H1          6.5250    1.5110    6.2340 hc        1 MOL      0.122731
      5 H2          4.7970    1.4970    6.6600 hc        1 MOL      0.122731
      6 H3          5.6680   -0.0370    6.4200 hc        1 MOL      0.122731
      7 N1          5.1960   -0.1310    3.8810 n         1 MOL     -0.559797
      8 C3          5.1030   -0.2720    2.4140 c3        1 MOL      0.306669
      9 C4          3.6580   -0.1930    1.9180 c         1 MOL     -0.125324
     10 O2          3.5210   -0.4110    0.7210 o         1 MOL     -0.085532
     11 C5          5.8230   -1.5510    1.8900 c3        1 MOL     -0.265762
     12 C6          5.3630   -2.8930    2.5760 c         1 MOL      0.743311
     13 O3          4.4890   -3.7320    2.0690 o         1 MOL     -0.668505
     14 O4          5.8620   -3.0470    3.6970 o         1 MOL     -0.668505
     15 H4          5.3720   -0.9460    4.4530 hn        1 MOL      0.288143
     16 H5          5.6220    0.6190    2.0490 h1        1 MOL      0.099404
     17 H6          6.8890   -1.3830    2.0260 hc        1 MOL      0.050873
     18 H7          5.5600   -1.5760    0.8350 hc        1 MOL      0.050873
     19 N2          2.6850    0.2540    2.7550 n         1 MOL     -0.293488
     20 C7          1.2350   -0.0850    2.6360 c3        1 MOL      0.142122
     21 C8          0.4940    1.2470    2.5190 c         1 MOL      0.202022
     22 O5          0.6890    2.1600    3.3460 o         1 MOL     -0.495401
     23 C9          0.8040   -1.0090    3.7570 c3        1 MOL     -0.066459
     24 C10         1.5460   -2.3270    3.6580 c3        1 MOL      0.072203
     25 C11         1.1830   -3.2640    4.8500 c3        1 MOL     -0.120474
     26 C12         2.4030   -4.0700    5.3240 c3        1 MOL      0.004377
     27 N3          3.1000   -4.9090    4.3120 n4        1 MOL     -0.266141
     28 H8          3.0400    0.4510    3.6820 hn        1 MOL      0.279656
     29 H9          1.2620   -0.5500    1.6450 h1        1 MOL      0.183472
     30 H10        -0.2870   -1.1120    3.6880 hc        1 MOL      0.051940
     31 H11         1.0700   -0.6040    4.7240 hc        1 MOL      0.051940
     32 H12         2.6100   -2.1010    3.5780 hc        1 MOL      0.002902
     33 H13         1.1150   -2.8460    2.8000 hc        1 MOL      0.002902
     34 H14         0.2690   -3.8340    4.6420 hc        1 MOL      0.066717
     35 H15         0.8300   -2.6250    5.6590 hc        1 MOL      0.066717
     36 H16         1.9770   -4.6500    6.1470 hx        1 MOL      0.070947
     37 H17         3.1130   -3.3830    5.7790 hx        1 MOL      0.070947
     38 H18         3.3420   -4.4470    3.4500 hn        1 MOL      0.290266
     39 H19         3.8260   -5.5370    4.6100 hn        1 MOL      0.290266
     40 H20         2.4120   -5.5890    4.0210 hn        1 MOL      0.290266
     41 N4         -0.3650    1.5020    1.5330 n         1 MOL      0.396918
     42 C13        -0.8930    0.5790    0.5190 c3        1 MOL     -1.323905
     43 C14        -1.2000   -0.8540    1.0140 c         1 MOL      0.157515
     44 O6         -0.7190   -1.8800    0.5080 o         1 MOL     -0.297483
     45 C15        -0.1200    0.6380   -0.8160 c3        1 MOL     -0.300205
     46 C16        -0.0910    2.0520   -1.4920 c         1 MOL      0.567690
     47 O7          0.5580    2.2430   -2.5610 o         1 MOL     -0.616490
     48 O8         -0.8070    2.8860   -0.9300 o         1 MOL     -0.616490
     49 H21        -0.6000    2.4850    1.4780 hn        1 MOL      0.010880
     50 H22        -1.8570    0.9720    0.2000 h1        1 MOL      0.437404
     51 H23        -0.6230    0.0010   -1.5270 hc        1 MOL      0.221217
     52 H24         0.8850    0.3030   -0.5430 hc        1 MOL      0.221217
     53 N5         -2.1840   -1.0730    1.8590 n         1 MOL     -0.208371
     54 C17        -3.1470   -0.1120    2.4310 c3        1 MOL      0.009596
     55 C18        -4.3440   -0.7270    3.1770 c         1 MOL      0.454121
     56 O9         -4.2400   -1.8870    3.6290 o         1 MOL     -0.530066
     57 H25        -2.3120   -2.0070    2.2260 hn        1 MOL      0.282272
     58 H26        -3.4240    0.6320    1.6840 h1        1 MOL      0.096340
     59 H27        -2.6370    0.4610    3.2070 h1        1 MOL      0.096340
     60 N6         -5.4630   -0.0450    3.3960 n         1 MOL     -0.445937
     61 C19        -5.8570    1.2780    2.7830 c3        1 MOL      0.117043
     62 C20        -6.5150    1.2130    1.4450 c         1 MOL      0.348673
     63 O10        -7.0550    0.1370    1.1600 o         1 MOL     -0.405781
     64 C21        -6.7360    2.0510    3.8390 c3        1 MOL     -0.204379
     65 C22        -8.0980    1.5040    4.1290 c         1 MOL      0.782050
     66 O11        -9.0010    1.8590    3.3360 o         1 MOL     -0.685047
     67 O12        -8.3030    0.7340    5.0540 o         1 MOL     -0.685047
     68 H28        -6.2480   -0.5500    3.7730 hn        1 MOL      0.349318
     69 H29        -4.9260    1.8480    2.6970 h1        1 MOL     -0.005031
     70 H30        -6.9950    3.0730    3.5720 hc        1 MOL      0.021545
     71 H31        -6.1190    2.1410    4.7230 hc        1 MOL      0.021545
     72 N7         -6.5490    2.3090    0.6710 n         1 MOL     -0.167281
     73 C23        -7.2860    2.6170   -0.6060 c3        1 MOL     -0.577578
     74 C24        -6.7750    1.7700   -1.7400 c         1 MOL      0.549378
     75 O13        -7.3890    1.5950   -2.8020 o         1 MOL     -0.554030
     76 H32        -6.0520    3.1100    1.0430 hn        1 MOL      0.187753
     77 H33        -7.2060    3.6830   -0.7750 h1        1 MOL      0.260713
     78 H34        -8.3200    2.2730   -0.5250 h1        1 MOL      0.260713
     79 N8         -5.6850    1.0090   -1.5580 n         1 MOL     -0.095535
     80 C25        -5.3650   -0.1280   -2.4770 c3        1 MOL     -0.210667
     81 C26        -4.4370   -1.0980   -1.8290 c         1 MOL      0.182607
     82 O14        -3.3930   -0.7850   -1.2500 o         1 MOL     -0.044198
     83 C27        -4.6570    0.2980   -3.8260 c3        1 MOL      0.253830
     84 C28        -3.6350    1.3640   -3.5020 c3        1 MOL      0.141122
     85 O15        -5.6020    0.8410   -4.7460 oh        1 MOL     -0.677941
     86 H35        -5.0530    1.1340   -0.7820 hn        1 MOL      0.061107
     87 H36        -6.3200   -0.5840   -2.7560 h1        1 MOL      0.133377
     88 H37        -4.2360   -0.5290   -4.3970 h1        1 MOL      0.096128
     89 H38        -6.4070    1.0320   -4.2710 ho        1 MOL      0.417746
     90 H39        -3.2620    1.2250   -2.4890 hc        1 MOL     -0.046863
     91 H40        -2.8180    1.2520   -4.2240 hc        1 MOL     -0.046863
     92 H41        -4.0950    2.3430   -3.6180 hc        1 MOL     -0.046863
     93 N9         -4.8530   -2.3540   -1.8110 n         1 MOL     -0.293492
     94 C29        -4.2530   -3.4390   -1.0370 c3        1 MOL     -0.013722
     95 C30        -3.2700   -4.1220   -1.9290 c         1 MOL      0.546834
     96 O16        -3.5550   -5.1150   -2.5300 o         1 MOL     -0.550484
     97 C31        -5.2290   -4.4580   -0.2970 c3        1 MOL      0.180122
     98 C32        -6.0080   -3.7130    0.8090 c3        1 MOL     -0.050784
     99 C33        -4.4350   -5.5840    0.4470 c3        1 MOL     -0.322033
    100 C34        -7.2510   -4.3970    1.4300 c3        1 MOL     -0.140676
    101 H42        -5.7310   -2.5610   -2.2660 hn        1 MOL      0.285707
    102 H43        -3.7370   -3.0200   -0.1790 h1        1 MOL     -0.017731
    103 H44        -5.9130   -4.8210   -1.0660 hc        1 MOL     -0.011592
    104 H45        -6.3890   -2.7580    0.4370 hc        1 MOL      0.041066
    105 H46        -5.3820   -3.5590    1.6870 hc        1 MOL      0.041066
    106 H47        -5.0350   -6.2190    1.0860 hc        1 MOL      0.082748
    107 H48        -3.9860   -6.2710   -0.2750 hc        1 MOL      0.082748
    108 H49        -3.6620   -5.1430    1.0900 hc        1 MOL      0.082748
    109 H50        -7.9320   -4.8190    0.6870 hc        1 MOL      0.036293
    110 H51        -7.0110   -5.2580    2.0630 hc        1 MOL      0.036293
    111 H52        -7.7240   -3.5970    1.9990 hc        1 MOL      0.036293
    112 N10        -2.1370   -3.4950   -2.0060 n         1 MOL     -0.322338
    113 C35        -1.2170   -3.9090   -3.1330 c3        1 MOL     -0.092578
    114 C36         0.2630   -3.7640   -2.8590 c         1 MOL      0.449483
    115 O17         1.0490   -4.2830   -3.5960 o         1 MOL     -0.555179
    116 C37        -1.5650   -3.2480   -4.4630 c3        1 MOL      0.281208
    117 C38        -1.4550   -1.6740   -4.3780 c3        1 MOL     -0.259318
    118 O18        -2.8550   -3.4540   -4.8940 oh        1 MOL     -0.618370
    119 H53        -2.0130   -2.6250   -1.5120 hn        1 MOL      0.188739
    120 H54        -1.3380   -4.9750   -3.2960 h1        1 MOL      0.109710
    121 H55        -0.9060   -3.6650   -5.2290 h1        1 MOL      0.019660
    122 H56        -2.8020   -4.3540   -5.2170 ho        1 MOL      0.400246
    123 H57        -2.0000   -1.1100   -5.1390 hc        1 MOL      0.088994
    124 H58        -1.6830   -1.2530   -3.4000 hc        1 MOL      0.088994
    125 H59        -0.4010   -1.4260   -4.4860 hc        1 MOL      0.088994
    126 N11         0.6860   -3.0800   -1.7520 n         1 MOL     -0.116543
    127 C39         2.0570   -2.6670   -1.4330 c3        1 MOL      0.251520
    128 C40         2.6310   -1.5710   -2.2980 c         1 MOL      0.160658
    129 O19         1.9670   -1.2060   -3.2210 o         1 MOL     -0.429166
    130 C41         3.0280   -3.9000   -1.2560 c3        1 MOL      0.417320
    131 C42         2.5530   -5.0640   -0.4030 c3        1 MOL     -0.374788
    132 O20         4.2380   -3.5220   -0.5900 oh        1 MOL     -0.617574
    133 H60        -0.0050   -2.7710   -1.0920 hn        1 MOL     -0.019559
    134 H61         2.0720   -2.1530   -0.4690 h1        1 MOL     -0.053571
    135 H62         3.3420   -4.2470   -2.2390 h1        1 MOL     -0.024037
    136 H63         4.1920   -3.5970    0.3590 ho        1 MOL      0.286441
    137 H64         1.7370   -5.6060   -0.8900 hc        1 MOL      0.077630
    138 H65         3.3720   -5.7700   -0.2900 hc        1 MOL      0.077630
    139 H66         2.1650   -4.7000    0.5450 hc        1 MOL      0.077630
    140 N12         3.8080   -0.9910   -1.9460 n         1 MOL     -0.072429
    141 C43         4.5850   -0.0250   -2.8680 c3        1 MOL     -0.104939
    142 C44         4.6080    1.4860   -2.3080 c         1 MOL      0.573663
    143 O21         4.9420    2.3930   -3.0800 o         1 MOL     -0.603559
    144 C45         5.9970   -0.5420   -2.9580 c3        1 MOL      0.081682
    145 C46         6.0830   -2.0190   -3.4260 c3        1 MOL     -0.003159
    146 C47         7.5110   -2.3020   -3.8900 c3        1 MOL     -0.118371
    147 C48         8.4750   -2.2790   -2.6990 c3        1 MOL      0.142160
    148 N13         9.9230   -2.0580   -3.1180 n4        1 MOL     -0.508199
    149 H67         4.1250   -1.2640   -1.0280 hn        1 MOL      0.178900
    150 H68         4.1460    0.0050   -3.8640 h1        1 MOL      0.118115
    151 H69         6.5160   -0.4570   -2.0070 hc        1 MOL     -0.022422
    152 H70         6.4980    0.1350   -3.6510 hc        1 MOL     -0.022422
    153 H71         5.3930   -2.1660   -4.2640 hc        1 MOL      0.037740
    154 H72         5.8480   -2.7210   -2.6340 hc        1 MOL      0.037740
    155 H73         7.7280   -1.4520   -4.5480 hc        1 MOL      0.049069
    156 H74         7.6400   -3.1790   -4.5180 hc        1 MOL      0.049069
    157 H75         8.3500   -3.2090   -2.1520 hx        1 MOL      0.068648
    158 H76         8.0990   -1.5000   -2.0260 hx        1 MOL      0.068648
    159 H77         9.9410   -1.1840   -3.6200 hn        1 MOL      0.357465
    160 H78        10.6300   -1.8490   -2.4210 hn        1 MOL      0.357465
    161 H79        10.3710   -2.8320   -3.5940 hn        1 MOL      0.357465
    162 N14         4.3610    1.7560   -1.0560 n         1 MOL     -0.086606
    163 C49         4.2340    3.1230   -0.4620 c3        1 MOL     -0.511479
    164 C50         5.5490    3.7170   -0.0290 c         1 MOL      0.622295
    165 O22         6.4330    2.9830    0.3950 o         1 MOL     -0.557548
    166 C51         3.2780    3.1230    0.7570 c3        1 MOL      0.353270
    167 C52         2.8080    4.4400    1.3110 c3        1 MOL     -0.208816
    168 C53         2.2920    5.4450    0.2340 c         1 MOL      0.426314
    169 O23         3.0470    6.3690   -0.1200 o         1 MOL     -0.638445
    170 O24         1.1870    5.2440   -0.3520 o         1 MOL     -0.638445
    171 H80         4.0900    0.8880   -0.6330 hn        1 MOL     -0.053919
    172 H81         3.7930    3.7280   -1.2400 h1        1 MOL      0.262078
    173 H82         3.7410    2.6130    1.5910 hc        1 MOL      0.047956
    174 H83         2.4090    2.5180    0.4840 hc        1 MOL      0.047956
    175 H84         3.6210    4.8900    1.8890 hc        1 MOL      0.046585
    176 H85         2.0360    4.1930    2.0410 hc        1 MOL      0.046585
    177 N15         5.7970    5.0160   -0.1440 n         1 MOL     -0.390041
    178 C54         7.0710    5.6600    0.0890 c3        1 MOL     -0.036163
    179 H86         7.8430    4.9020    0.2140 h1        1 MOL      0.049061
    180 H87         7.3180    6.2940   -0.7630 h1        1 MOL      0.049061
    181 H88         7.0110    6.2700    0.9900 h1        1 MOL      0.049061
    182 H89         5.0750    5.6740   -0.3830 hn        1 MOL      0.328289
    183 Ca1        -1.3570    5.4780   -0.6960 Ca        1 MOL      1.675222
    184 O25        -2.5070    4.7410   -2.9500 oh        1 MOL     -0.887259
    185 H90        -1.9860    4.3110   -3.6330 ho        1 MOL      0.443524
    186 H91        -3.3160    4.9980   -3.3890 ho        1 MOL      0.443524
    187 O26        -0.1100    7.3900   -2.1940 oh        1 MOL     -0.887259
    188 H92         0.3150    8.0370   -1.6220 ho        1 MOL      0.443524
    189 H93         0.4050    7.4250   -3.0040 ho        1 MOL      0.443524
    190 O27        -3.1290    7.3420   -1.3640 oh        1 MOL     -0.887259
    191 H94        -4.0640    7.3180   -1.1660 ho        1 MOL      0.443524
    192 H95        -3.0350    8.0380   -2.0190 ho        1 MOL      0.443524
@<TRIPOS>BOND
     1    1    2 1   
     2    1    4 1   
     3    1    5 1   
     4    1    6 1   
     5    2    3 2   
     6    2    7 1   
     7    7    8 1   
     8    7   15 1   
     9    8    9 1   
    10    8   11 1   
    11    8   16 1   
    12    9   10 2   
    13    9   19 1   
    14   11   12 1   
    15   11   17 1   
    16   11   18 1   
    17   12   13 1   
    18   12   14 1   
    19   19   20 1   
    20   19   28 1   
    21   20   21 1   
    22   20   23 1   
    23   20   29 1   
    24   21   22 2   
    25   21   41 1   
    26   23   24 1   
    27   23   30 1   
    28   23   31 1   
    29   24   25 1   
    30   24   32 1   
    31   24   33 1   
    32   25   26 1   
    33   25   34 1   
    34   25   35 1   
    35   26   27 1   
    36   26   36 1   
    37   26   37 1   
    38   27   38 1   
    39   27   39 1   
    40   27   40 1   
    41   41   42 1   
    42   41   49 1   
    43   42   43 1   
    44   42   45 1   
    45   42   50 1   
    46   43   44 2   
    47   43   53 1   
    48   45   46 1   
    49   45   51 1   
    50   45   52 1   
    51   46   47 1   
    52   46   48 1   
    53   53   54 1   
    54   53   57 1   
    55   54   55 1   
    56   54   58 1   
    57   54   59 1   
    58   55   56 2   
    59   55   60 1   
    60   60   61 1   
    61   60   68 1   
    62   61   62 1   
    63   61   64 1   
    64   61   69 1   
    65   62   63 2   
    66   62   72 1   
    67   64   65 1   
    68   64   70 1   
    69   64   71 1   
    70   65   66 1   
    71   65   67 1   
    72   72   73 1   
    73   72   76 1   
    74   73   74 1   
    75   73   77 1   
    76   73   78 1   
    77   74   75 2   
    78   74   79 1   
    79   79   80 1   
    80   79   86 1   
    81   80   81 1   
    82   80   83 1   
    83   80   87 1   
    84   81   82 2   
    85   81   93 1   
    86   83   84 1   
    87   83   85 1   
    88   83   88 1   
    89   84   90 1   
    90   84   91 1   
    91   84   92 1   
    92   85   89 1   
    93   93   94 1   
    94   93  101 1   
    95   94   95 1   
    96   94   97 1   
    97   94  102 1   
    98   95   96 2   
    99   95  112 1   
   100   97   98 1   
   101   97   99 1   
   102   97  103 1   
   103   98  100 1   
   104   98  104 1   
   105   98  105 1   
   106   99  106 1   
   107   99  107 1   
   108   99  108 1   
   109  100  109 1   
   110  100  110 1   
   111  100  111 1   
   112  112  113 1   
   113  112  119 1   
   114  113  114 1   
   115  113  116 1   
   116  113  120 1   
   117  114  115 2   
   118  114  126 1   
   119  116  117 1   
   120  116  118 1   
   121  116  121 1   
   122  117  123 1   
   123  117  124 1   
   124  117  125 1   
   125  118  122 1   
   126  126  127 1   
   127  126  133 1   
   128  127  128 1   
   129  127  130 1   
   130  127  134 1   
   131  128  129 2   
   132  128  140 1   
   133  130  131 1   
   134  130  132 1   
   135  130  135 1   
   136  131  137 1   
   137  131  138 1   
   138  131  139 1   
   139  132  136 1   
   140  140  141 1   
   141  140  149 1   
   142  141  142 1   
   143  141  144 1   
   144  141  150 1   
   145  142  143 2   
   146  142  162 1   
   147  144  145 1   
   148  144  151 1   
   149  144  152 1   
   150  145  146 1   
   151  145  153 1   
   152  145  154 1   
   153  146  147 1   
   154  146  155 1   
   155  146  156 1   
   156  147  148 1   
   157  147  157 1   
   158  147  158 1   
   159  148  159 1   
   160  148  160 1   
   161  148  161 1   
   162  162  163 1   
   163  162  171 1   
   164  163  164 1   
   165  163  166 1   
   166  163  172 1   
   167  164  165 2   
   168  164  177 1   
   169  166  167 1   
   170  166  173 1   
   171  166  174 1   
   172  167  168 1   
   173  167  175 1   
   174  167  176 1   
   175  168  169 1   
   176  168  170 1   
   177  177  178 1   
   178  177  182 1   
   179  178  179 1   
   180  178  180 1   
   181  178  181 1   
   182  184  185 1   
   183  184  186 1   
   184  187  188 1   
   185  187  189 1   
   186  190  191 1   
   187  190  192 1   
@<TRIPOS>SUBSTRUCTURE
     1 MOL         1 TEMP              0 ****  ****    0 ROOT
