@<TRIPOS>MOLECULE
MOL
  179   176     1     0     0
SMALL
resp


@<TRIPOS>ATOM
      1 C1         -2.7130   -1.7930    6.7690 c3        1 MOL     -0.360245
      2 C2         -2.5860   -1.7490    5.1760 c         1 MOL      0.747283
      3 O1         -3.5480   -1.4470    4.4650 o         1 MOL     -0.601589
      4 H1         -2.4450   -2.7880    7.1280 hc        1 MOL      0.095381
      5 H2         -2.0420   -1.0560    7.2090 hc        1 MOL      0.095381
      6 H3         -3.7400   -1.5680    7.0580 hc        1 MOL      0.095381
      7 N1         -1.4500   -2.1600    4.6290 n         1 MOL     -0.588049
      8 C3         -1.1880   -2.2360    3.1750 c3        1 MOL     -0.016391
      9 C4         -1.4610   -3.5750    2.5440 c         1 MOL      0.700870
     10 O2         -0.8320   -4.5400    2.9420 o         1 MOL     -0.548634
     11 C5          0.3100   -1.8540    3.0410 c3        1 MOL     -0.055523
     12 C6          0.8240   -1.5580    1.6310 c         1 MOL      0.376985
     13 O3          2.0580   -1.3360    1.4110 o         1 MOL     -0.657432
     14 O4          0.0630   -1.3780    0.6920 o         1 MOL     -0.657432
     15 H4         -0.6830   -2.1960    5.2780 hn        1 MOL      0.303998
     16 H5         -1.7600   -1.4080    2.7490 h1        1 MOL      0.020085
     17 H6          0.9790   -2.6070    3.4530 hc        1 MOL      0.056993
     18 H7          0.4920   -0.9110    3.5700 hc        1 MOL      0.056993
     19 N2         -2.3170   -3.6120    1.5580 n         1 MOL     -0.466884
     20 C7         -2.7280   -4.8240    0.8210 c3        1 MOL     -0.029178
     21 C8         -1.5220   -5.5260    0.1290 c         1 MOL      0.338516
     22 O5         -1.1400   -6.6270    0.4560 o         1 MOL     -0.471997
     23 C9         -3.8720   -4.5160   -0.1350 c3        1 MOL      0.032574
     24 C10        -4.7000   -5.7030   -0.6940 c3        1 MOL     -0.030280
     25 C11        -5.8080   -5.0330   -1.6110 c3        1 MOL     -0.154459
     26 C12        -6.6890   -6.0130   -2.3630 c3        1 MOL      0.086858
     27 N3         -7.5710   -5.2700   -3.2950 n4        1 MOL     -0.200713
     28 H8         -2.6880   -2.7130    1.2850 hn        1 MOL      0.297216
     29 H9         -3.1200   -5.5890    1.4960 h1        1 MOL      0.103272
     30 H10        -3.4390   -3.8900   -0.9030 hc        1 MOL      0.021950
     31 H11        -4.6840   -3.9190    0.2900 hc        1 MOL      0.021950
     32 H12        -5.1280   -6.3420    0.0770 hc        1 MOL      0.050201
     33 H13        -4.0830   -6.3610   -1.3190 hc        1 MOL      0.050201
     34 H14        -5.3520   -4.3780   -2.3580 hc        1 MOL      0.065694
     35 H15        -6.4250   -4.3840   -0.9960 hc        1 MOL      0.065694
     36 H16        -7.4300   -6.5470   -1.7630 hx        1 MOL      0.070778
     37 H17        -6.1390   -6.7840   -2.9010 hx        1 MOL      0.070778
     38 H18        -8.0550   -4.5760   -2.7340 hn        1 MOL      0.277088
     39 H19        -7.0300   -4.7000   -3.9350 hn        1 MOL      0.277088
     40 H20        -8.2430   -5.7940   -3.8380 hn        1 MOL      0.277088
     41 N4         -0.8530   -4.7200   -0.6870 n         1 MOL     -0.145333
     42 C13         0.1690   -5.2050   -1.6070 c3        1 MOL     -0.277240
     43 C14         1.5010   -5.5500   -0.8530 c         1 MOL      0.435714
     44 O6          2.2180   -6.4280   -1.3320 o         1 MOL     -0.518523
     45 C15         0.4670   -4.2250   -2.7720 c3        1 MOL     -0.215301
     46 C16         0.8410   -2.8580   -2.2480 c         1 MOL      0.671510
     47 O7          1.9860   -2.6110   -1.7830 o         1 MOL     -0.717524
     48 O8          0.0340   -1.9660   -2.2640 o         1 MOL     -0.717524
     49 H21        -1.2850   -3.8150   -0.7020 hn        1 MOL      0.242318
     50 H22        -0.1860   -6.0940   -2.1350 h1        1 MOL      0.161409
     51 H23        -0.3920   -4.1990   -3.4400 hc        1 MOL      0.085548
     52 H24         1.3120   -4.6160   -3.3230 hc        1 MOL      0.085548
     53 N5          1.6970   -4.8490    0.2800 n         1 MOL      0.063246
     54 C17         2.8480   -5.0020    1.2250 c3        1 MOL     -0.427247
     55 C18         4.1450   -4.5870    0.6480 c         1 MOL      0.664366
     56 O9          5.2030   -5.1170    0.9020 o         1 MOL     -0.556248
     57 H25         0.9430   -4.2210    0.5290 hn        1 MOL      0.209348
     58 H26         3.0550   -6.0710    1.3500 h1        1 MOL      0.157621
     59 H27         2.6950   -4.5700    2.2090 h1        1 MOL      0.157621
     60 N6          4.1290   -3.6010   -0.2460 n         1 MOL     -0.416043
     61 C19         5.2790   -3.2200   -1.1170 c3        1 MOL      0.267041
     62 C20         5.2590   -1.6680   -1.2620 c         1 MOL      0.418056
     63 O10         4.2210   -0.9910   -1.0440 o         1 MOL     -0.448655
     64 C21         5.1820   -3.9240   -2.4520 c3        1 MOL     -0.376629
     65 C22         5.6840   -5.3220   -2.4110 c         1 MOL      0.737938
     66 N7          4.8390   -6.3070   -2.4040 n         1 MOL     -0.836159
     67 O11         6.8670   -5.5420   -2.3440 o         1 MOL     -0.599234
     68 H28         3.2420   -3.1780   -0.4990 hn        1 MOL      0.185345
     69 H29         6.2090   -3.4210   -0.5880 h1        1 MOL      0.019172
     70 H30         5.8430   -3.4260   -3.1530 hc        1 MOL      0.080383
     71 H31         4.1290   -3.9860   -2.7420 hc        1 MOL      0.080383
     72 H32         3.8560   -6.0550   -2.3600 hn        1 MOL      0.385869
     73 H33         5.0780   -7.2860   -2.4120 hn        1 MOL      0.385869
     74 N8          6.3590   -1.0530   -1.7030 n         1 MOL     -0.330967
     75 C23         6.4150    0.3640   -2.1200 c3        1 MOL     -0.164278
     76 C24         6.0760    1.4070   -0.9300 c         1 MOL      0.625736
     77 O12         6.3910    0.9990    0.2210 o         1 MOL     -0.498568
     78 H34         7.1980   -1.5750   -1.9370 hn        1 MOL      0.291399
     79 H35         5.5880    0.5070   -2.8200 h1        1 MOL      0.091853
     80 H36         7.3880    0.6220   -2.5440 h1        1 MOL      0.091853
     81 N9          5.5470    2.6180   -1.2210 n         1 MOL     -0.653166
     82 C25         4.8290    3.3790   -0.1860 c3        1 MOL      0.296720
     83 C26         3.7760    2.6370    0.6050 c         1 MOL      0.458038
     84 O13         3.4290    1.5510    0.1650 o         1 MOL     -0.515514
     85 C27         4.1850    4.6060   -0.9450 c3        1 MOL     -0.016404
     86 C28         5.0910    5.7920   -1.2110 ca        1 MOL     -0.017212
     87 C29         5.8590    6.3290   -0.1290 ca        1 MOL     -0.131297
     88 C30         5.3110    6.2090   -2.5350 ca        1 MOL     -0.131297
     89 C31         6.7820    7.3260   -0.4590 ca        1 MOL     -0.223031
     90 C32         6.3220    7.1590   -2.8030 ca        1 MOL     -0.223031
     91 C33         7.0050    7.7760   -1.7750 ca        1 MOL      0.283227
     92 O14         8.0130    8.6900   -1.9810 oh        1 MOL     -0.456847
     93 H37         5.5160    3.0290   -2.1380 hn        1 MOL      0.311352
     94 H38         5.6380    3.6890    0.4870 h1        1 MOL      0.048253
     95 H39         3.4560    5.0510   -0.2640 hc        1 MOL     -0.001045
     96 H40         3.5630    4.2800   -1.7820 hc        1 MOL     -0.001045
     97 H41         5.8060    5.9550    0.8810 ha        1 MOL      0.117371
     98 H42         4.7490    5.8880   -3.3960 ha        1 MOL      0.117371
     99 H43         7.4290    7.7690    0.2870 ha        1 MOL      0.142723
    100 H44         6.4320    7.5430   -3.8040 ha        1 MOL      0.142723
    101 H45         8.1660    8.8470   -2.9160 ho        1 MOL      0.354965
    102 N10         3.3430    3.1370    1.7430 n         1 MOL     -0.689334
    103 C34         2.3800    2.4800    2.6760 c3        1 MOL      0.512653
    104 C35         1.0210    2.0610    2.1240 c         1 MOL      0.308199
    105 O15         0.9380    1.4140    1.0750 o         1 MOL     -0.467632
    106 C36         3.0210    1.3570    3.5900 c3        1 MOL      0.309621
    107 C37         2.2380    0.9630    4.8450 c3        1 MOL     -0.130434
    108 C38         4.5380    1.5790    3.8970 c3        1 MOL     -0.043937
    109 C39         2.2650    2.0540    5.9540 c3        1 MOL     -0.469927
    110 H46         3.6930    4.0310    2.0530 hn        1 MOL      0.330315
    111 H47         2.2210    3.2990    3.3750 h1        1 MOL     -0.103401
    112 H48         2.9230    0.4510    2.9870 hc        1 MOL     -0.064115
    113 H49         2.6660    0.0260    5.2100 hc        1 MOL      0.086241
    114 H50         1.1830    0.7480    4.6580 hc        1 MOL      0.086241
    115 H51         4.7010    2.5740    4.3280 hc        1 MOL     -0.000772
    116 H52         4.8920    0.7360    4.4760 hc        1 MOL     -0.000772
    117 H53         5.0810    1.7010    2.9590 hc        1 MOL     -0.000772
    118 H54         1.3730    1.8460    6.5520 hc        1 MOL      0.112240
    119 H55         3.2270    1.8970    6.4330 hc        1 MOL      0.112240
    120 H56         2.0570    3.0840    5.6520 hc        1 MOL      0.112240
    121 N11         0.0290    2.4440    2.8390 n         1 MOL     -0.609493
    122 C40        -1.2880    1.7680    2.8670 c3        1 MOL      0.055522
    123 C41        -2.0570    1.9250    1.5610 c         1 MOL      0.398141
    124 O16        -3.1960    1.5040    1.4440 o         1 MOL     -0.523915
    125 C42        -2.0620    2.2010    4.1020 c3        1 MOL      0.078914
    126 O17        -1.1440    2.2000    5.2110 oh        1 MOL     -0.573175
    127 H57         0.2810    3.0630    3.6020 hn        1 MOL      0.330589
    128 H58        -1.0530    0.7070    2.9350 h1        1 MOL      0.266439
    129 H59        -2.9350    1.5760    4.2770 h1        1 MOL      0.091538
    130 H60        -2.4490    3.2060    3.9820 h1        1 MOL      0.091538
    131 H61        -0.9490    3.1400    5.2660 ho        1 MOL      0.378380
    132 N12        -1.5810    2.6390    0.4970 n         1 MOL     -0.316455
    133 C43        -2.3260    2.7320   -0.7100 c3        1 MOL      0.057482
    134 C44        -2.1330    1.4460   -1.6310 c         1 MOL      0.670579
    135 O18        -1.0370    0.9360   -1.7740 o         1 MOL     -0.668478
    136 C45        -1.9550    4.0620   -1.3800 c3        1 MOL     -0.388364
    137 H62        -0.6330    2.9810    0.5570 hn        1 MOL      0.262170
    138 H63        -3.3840    2.7970   -0.4510 h1        1 MOL      0.144936
    139 H64        -0.9990    3.8940   -1.8900 hc        1 MOL      0.105763
    140 H65        -2.7310    4.2980   -2.1010 hc        1 MOL      0.105763
    141 H66        -1.9470    4.7430   -0.5360 hc        1 MOL      0.105763
    142 N13        -3.1600    0.8840   -2.1810 n         1 MOL     -0.596571
    143 C46        -4.6280    1.0610   -1.9620 c3        1 MOL      0.227752
    144 C47        -5.2510    2.3590   -2.4190 c         1 MOL      0.736260
    145 O19        -4.8230    2.7970   -3.4480 o         1 MOL     -0.606188
    146 C48        -5.4140   -0.1930   -2.3910 c3        1 MOL     -0.321503
    147 H67        -2.8350    0.1750   -2.8110 hn        1 MOL      0.350956
    148 H68        -4.7890    1.0650   -0.8870 h1        1 MOL      0.085007
    149 H69        -4.9300   -0.5970   -3.2810 hc        1 MOL      0.073160
    150 H70        -5.4100   -1.0310   -1.6830 hc        1 MOL      0.073160
    151 H71        -6.4560    0.0940   -2.4860 hc        1 MOL      0.073160
    152 N14        -6.1480    3.0920   -1.6940 n         1 MOL     -0.655773
    153 C49        -6.6900    2.7830   -0.3780 c3        1 MOL     -0.156958
    154 C50        -6.8330    4.1120    0.4530 c         1 MOL      0.538794
    155 O20        -6.4970    4.1430    1.6770 o         1 MOL     -0.575413
    156 C51        -8.0330    2.0400   -0.5300 c3        1 MOL      0.203508
    157 C52        -9.2550    2.9160   -0.9890 c3        1 MOL     -0.275945
    158 C53        -9.0290    3.5190   -2.4100 c         1 MOL      0.726730
    159 O21        -9.5860    2.8900   -3.3610 o         1 MOL     -0.677409
    160 O22        -8.3860    4.5750   -2.5960 o         1 MOL     -0.677409
    161 H72        -6.6030    3.8710   -2.1440 hn        1 MOL      0.328055
    162 H73        -6.0230    2.1630    0.2190 h1        1 MOL      0.073951
    163 H74        -8.3160    1.6280    0.4420 hc        1 MOL     -0.027799
    164 H75        -7.8890    1.1590   -1.1510 hc        1 MOL     -0.027799
    165 H76        -9.3560    3.6860   -0.2250 hc        1 MOL      0.045094
    166 H77       -10.1510    2.3170   -0.8370 hc        1 MOL      0.045094
    167 N15        -7.0600    5.2400   -0.1630 n         1 MOL     -0.239946
    168 C54        -7.2570    6.5290    0.5240 c3        1 MOL     -0.157450
    169 H78        -7.7120    7.2400   -0.1650 h1        1 MOL      0.078480
    170 H79        -7.9130    6.3860    1.3830 h1        1 MOL      0.078480
    171 H80        -6.2940    6.9130    0.8600 h1        1 MOL      0.078480
    172 H81        -7.2820    5.2830   -1.1480 hn        1 MOL      0.256366
    173 Ca1         1.5460   -0.0210   -0.9250 Ca        1 MOL      1.780770
    174 O23         1.4550    2.4370   -1.8100 oh        1 MOL     -0.808253
    175 H82         0.8970    3.1670   -1.5240 ho        1 MOL      0.406716
    176 H83         1.5880    2.6020   -2.7420 ho        1 MOL      0.406716
    177 O24         2.2080    0.2230   -3.4800 oh        1 MOL     -0.808253
    178 H84         1.4240   -0.1320   -3.8990 ho        1 MOL      0.406716
    179 H85         2.8430    0.2990   -4.1930 ho        1 MOL      0.406716
@<TRIPOS>BOND
     1    1    2 1   
     2    1    4 1   
     3    1    5 1   
     4    1    6 1   
     5    2    3 2   
     6    2    7 1   
     7    7    8 1   
     8    7   15 1   
     9    8    9 1   
    10    8   11 1   
    11    8   16 1   
    12    9   10 2   
    13    9   19 1   
    14   11   12 1   
    15   11   17 1   
    16   11   18 1   
    17   12   13 1   
    18   12   14 1   
    19   19   20 1   
    20   19   28 1   
    21   20   21 1   
    22   20   23 1   
    23   20   29 1   
    24   21   22 2   
    25   21   41 1   
    26   23   24 1   
    27   23   30 1   
    28   23   31 1   
    29   24   25 1   
    30   24   32 1   
    31   24   33 1   
    32   25   26 1   
    33   25   34 1   
    34   25   35 1   
    35   26   27 1   
    36   26   36 1   
    37   26   37 1   
    38   27   38 1   
    39   27   39 1   
    40   27   40 1   
    41   41   42 1   
    42   41   49 1   
    43   42   43 1   
    44   42   45 1   
    45   42   50 1   
    46   43   44 2   
    47   43   53 1   
    48   45   46 1   
    49   45   51 1   
    50   45   52 1   
    51   46   47 1   
    52   46   48 1   
    53   53   54 1   
    54   53   57 1   
    55   54   55 1   
    56   54   58 1   
    57   54   59 1   
    58   55   56 2   
    59   55   60 1   
    60   60   61 1   
    61   60   68 1   
    62   61   62 1   
    63   61   64 1   
    64   61   69 1   
    65   62   63 2   
    66   62   74 1   
    67   64   65 1   
    68   64   70 1   
    69   64   71 1   
    70   65   66 1   
    71   65   67 2   
    72   66   72 1   
    73   66   73 1   
    74   74   75 1   
    75   74   78 1   
    76   75   76 1   
    77   75   79 1   
    78   75   80 1   
    79   76   77 2   
    80   76   81 1   
    81   81   82 1   
    82   81   93 1   
    83   82   83 1   
    84   82   85 1   
    85   82   94 1   
    86   83   84 2   
    87   83  102 1   
    88   85   86 1   
    89   85   95 1   
    90   85   96 1   
    91   86   87 ar  
    92   86   88 ar  
    93   87   89 ar  
    94   87   97 1   
    95   88   90 ar  
    96   88   98 1   
    97   89   91 ar  
    98   89   99 1   
    99   90   91 ar  
   100   90  100 1   
   101   91   92 1   
   102   92  101 1   
   103  102  103 1   
   104  102  110 1   
   105  103  104 1   
   106  103  106 1   
   107  103  111 1   
   108  104  105 2   
   109  104  121 1   
   110  106  107 1   
   111  106  108 1   
   112  106  112 1   
   113  107  109 1   
   114  107  113 1   
   115  107  114 1   
   116  108  115 1   
   117  108  116 1   
   118  108  117 1   
   119  109  118 1   
   120  109  119 1   
   121  109  120 1   
   122  121  122 1   
   123  121  127 1   
   124  122  123 1   
   125  122  125 1   
   126  122  128 1   
   127  123  124 2   
   128  123  132 1   
   129  125  126 1   
   130  125  129 1   
   131  125  130 1   
   132  126  131 1   
   133  132  133 1   
   134  132  137 1   
   135  133  134 1   
   136  133  136 1   
   137  133  138 1   
   138  134  135 2   
   139  134  142 1   
   140  136  139 1   
   141  136  140 1   
   142  136  141 1   
   143  142  143 1   
   144  142  147 1   
   145  143  144 1   
   146  143  146 1   
   147  143  148 1   
   148  144  145 2   
   149  144  152 1   
   150  146  149 1   
   151  146  150 1   
   152  146  151 1   
   153  152  153 1   
   154  152  161 1   
   155  153  154 1   
   156  153  156 1   
   157  153  162 1   
   158  154  155 2   
   159  154  167 1   
   160  156  157 1   
   161  156  163 1   
   162  156  164 1   
   163  157  158 1   
   164  157  165 1   
   165  157  166 1   
   166  158  159 1   
   167  158  160 1   
   168  167  168 1   
   169  167  172 1   
   170  168  169 1   
   171  168  170 1   
   172  168  171 1   
   173  174  175 1   
   174  174  176 1   
   175  177  178 1   
   176  177  179 1   
@<TRIPOS>SUBSTRUCTURE
     1 MOL         1 TEMP              0 ****  ****    0 ROOT
