@<TRIPOS>MOLECULE
MOL
  192   187     1     0     0
SMALL
resp


@<TRIPOS>ATOM
      1 C1         -4.2210    6.2820    2.7920 c3        1 MOL     -0.395842
      2 C2         -4.3500    4.8730    2.2220 c         1 MOL      0.673133
      3 O1         -4.2980    3.8400    2.9400 o         1 MOL     -0.562239
      4 H1         -3.1930    6.4510    3.1150 hc        1 MOL      0.116551
      5 H2         -4.4840    7.0110    2.0240 hc        1 MOL      0.116551
      6 H3         -4.8920    6.3940    3.6430 hc        1 MOL      0.116551
      7 N1         -4.5340    4.7020    0.8820 n         1 MOL     -0.526284
      8 C3         -4.4970    3.4010    0.1360 c3        1 MOL      0.099354
      9 C4         -3.1170    2.7630   -0.0580 c         1 MOL      0.364128
     10 O2         -2.9660    1.6810   -0.5680 o         1 MOL     -0.493590
     11 C5         -5.2100    3.4460   -1.2350 c3        1 MOL     -0.186982
     12 C6         -4.7660    4.5300   -2.2030 c         1 MOL      0.609607
     13 O3         -4.2780    4.0900   -3.2330 o         1 MOL     -0.635729
     14 O4         -4.9910    5.6860   -1.9340 o         1 MOL     -0.635729
     15 H4         -4.5750    5.5290    0.3030 hn        1 MOL      0.287325
     16 H5         -5.1650    2.7230    0.6780 h1        1 MOL      0.036662
     17 H6         -6.2790    3.5510   -1.0350 hc        1 MOL      0.092712
     18 H7         -5.0100    2.4700   -1.6720 hc        1 MOL      0.092712
     19 N2         -2.0530    3.5240    0.3170 n         1 MOL     -0.149136
     20 C7         -0.6370    3.2210    0.0220 c3        1 MOL      0.019518
     21 C8          0.0360    2.8740    1.4140 c         1 MOL      0.442108
     22 O5         -0.3210    3.4990    2.4010 o         1 MOL     -0.532419
     23 C9         -0.0370    4.4430   -0.6900 c3        1 MOL      0.004726
     24 C10        -0.7460    4.6680   -2.0870 c3        1 MOL      0.085460
     25 C11        -0.6180    3.4760   -3.1240 c3        1 MOL     -0.179516
     26 C12        -0.9330    3.9320   -4.5640 c3        1 MOL      0.125561
     27 N3         -2.1410    4.8090   -4.6490 n4        1 MOL     -0.408511
     28 H8         -2.3960    4.3700    0.7570 hn        1 MOL      0.172154
     29 H9         -0.5330    2.3150   -0.5940 h1        1 MOL      0.123353
     30 H10         1.0340    4.3240   -0.8580 hc        1 MOL      0.029770
     31 H11        -0.1810    5.3680   -0.1390 hc        1 MOL      0.029770
     32 H12        -0.3680    5.6120   -2.4830 hc        1 MOL     -0.005920
     33 H13        -1.7770    4.8410   -1.7980 hc        1 MOL     -0.005920
     34 H14        -1.3360    2.7340   -2.7890 hc        1 MOL      0.046294
     35 H15         0.4160    3.1440   -3.2040 hc        1 MOL      0.046294
     36 H16        -1.0640    3.0290   -5.1730 hx        1 MOL      0.061255
     37 H17        -0.0680    4.4010   -5.0410 hx        1 MOL      0.061255
     38 H18        -2.3260    5.0890   -5.5990 hn        1 MOL      0.307637
     39 H19        -2.9790    4.3720   -4.2920 hn        1 MOL      0.307637
     40 H20        -2.0150    5.5990   -4.0370 hn        1 MOL      0.307637
     41 N4          0.9880    1.9460    1.5710 n         1 MOL     -0.291672
     42 C13         1.4970    0.9040    0.6640 c3        1 MOL      0.048818
     43 C14         2.0280    1.5060   -0.6530 c         1 MOL      0.576824
     44 O6          1.5390    1.2950   -1.7110 o         1 MOL     -0.597850
     45 C15         0.4940   -0.1820    0.5580 c3        1 MOL     -0.032227
     46 C16         0.1470   -0.8570    1.8600 c         1 MOL      0.517932
     47 O7         -1.0080   -1.1380    2.2300 o         1 MOL     -0.678720
     48 O8          1.0970   -1.2000    2.6690 o         1 MOL     -0.678720
     49 H21         1.5110    2.1450    2.4100 hn        1 MOL      0.243268
     50 H22         2.3550    0.4290    1.1350 h1        1 MOL     -0.018885
     51 H23         0.9570   -0.9400   -0.0780 hc        1 MOL      0.043455
     52 H24        -0.4130    0.1450    0.0530 hc        1 MOL      0.043455
     53 N5          3.0630    2.3640   -0.6750 n         1 MOL     -0.447970
     54 C17         3.8400    3.0530    0.3370 c3        1 MOL      0.081034
     55 C18         4.6160    4.1980   -0.1030 c         1 MOL      0.561910
     56 O9          4.1120    4.9500   -0.9280 o         1 MOL     -0.571138
     57 H25         3.3390    2.6490   -1.5980 hn        1 MOL      0.313332
     58 H26         4.5200    2.3670    0.8470 h1        1 MOL      0.013432
     59 H27         3.1770    3.4490    1.1070 h1        1 MOL      0.013432
     60 N6          5.7750    4.5010    0.4640 n         1 MOL     -0.491482
     61 C19         6.6010    3.8110    1.5040 c3        1 MOL      0.184447
     62 C20         7.2850    2.5950    0.8980 c         1 MOL      0.447554
     63 O10         7.3420    2.4220   -0.3120 o         1 MOL     -0.466767
     64 C21         7.6400    4.8180    2.1270 c3        1 MOL     -0.340486
     65 C22         8.2860    5.7580    1.0630 c         1 MOL      0.773633
     66 O11         7.5880    6.6990    0.5790 o         1 MOL     -0.702343
     67 O12         9.5000    5.6520    0.7430 o         1 MOL     -0.702343
     68 H28         6.2710    5.2410   -0.0110 hn        1 MOL      0.297625
     69 H29         5.9900    3.4410    2.3270 h1        1 MOL     -0.013260
     70 H30         8.3620    4.1800    2.6430 hc        1 MOL      0.060360
     71 H31         7.1380    5.4840    2.8390 hc        1 MOL      0.060360
     72 N7          7.8930    1.7740    1.7760 n         1 MOL     -0.250540
     73 C23         8.6130    0.5590    1.4500 c3        1 MOL     -0.262273
     74 C24         7.7970   -0.7100    1.0750 c         1 MOL      0.575275
     75 O13         8.3920   -1.6390    0.5990 o         1 MOL     -0.536605
     76 H32         7.8600    2.0550    2.7470 hn        1 MOL      0.237335
     77 H33         9.4670    0.4920    2.1220 h1        1 MOL      0.140349
     78 H34         9.1020    0.8420    0.5150 h1        1 MOL      0.140349
     79 N8          6.5160   -0.7150    1.4290 n         1 MOL     -0.390861
     80 C25         5.5240   -1.7200    1.0550 c3        1 MOL      0.001855
     81 C26         5.0270   -1.6190   -0.4370 c         1 MOL      0.724007
     82 O14         4.8480   -0.5710   -1.0110 o         1 MOL     -0.501821
     83 C27         4.2460   -1.5890    1.9910 c3        1 MOL      0.192249
     84 C28         4.6260   -1.9780    3.4370 c3        1 MOL     -0.160271
     85 O15         3.2210   -2.3940    1.4890 oh        1 MOL     -0.484898
     86 H35         6.1950    0.1240    1.8900 hn        1 MOL      0.167086
     87 H36         6.0030   -2.6930    1.1870 h1        1 MOL      0.100329
     88 H37         3.9010   -0.5580    1.9890 h1        1 MOL      0.105465
     89 H38         2.4220   -2.0750    1.9210 ho        1 MOL      0.261326
     90 H39         5.1740   -2.9180    3.4290 hc        1 MOL      0.033459
     91 H40         5.2360   -1.1880    3.8850 hc        1 MOL      0.033459
     92 H41         3.6800   -1.9700    3.9790 hc        1 MOL      0.033459
     93 N9          4.8030   -2.8320   -1.0380 n         1 MOL     -0.745728
     94 C29         4.4730   -2.9770   -2.5040 c3        1 MOL     -0.053867
     95 C30         3.1890   -3.7440   -2.8570 c         1 MOL      0.447549
     96 O16         2.8050   -3.6670   -4.0510 o         1 MOL     -0.552720
     97 C31         5.6570   -3.6240   -3.2120 c3        1 MOL      0.186786
     98 C32         6.0280   -5.0630   -2.6920 c3        1 MOL     -0.109206
     99 C33         6.9430   -2.7790   -3.1460 c3        1 MOL     -0.220381
    100 C34         6.7660   -5.9750   -3.6130 c3        1 MOL     -0.116302
    101 H42         4.7830   -3.6410   -0.4480 hn        1 MOL      0.285774
    102 H43         4.3820   -1.9420   -2.8310 h1        1 MOL      0.159217
    103 H44         5.4580   -3.8010   -4.2710 hc        1 MOL     -0.000460
    104 H45         5.1140   -5.5650   -2.3780 hc        1 MOL      0.047297
    105 H46         6.7700   -4.9770   -1.8930 hc        1 MOL      0.047297
    106 H47         7.3350   -2.6050   -2.1540 hc        1 MOL      0.071849
    107 H48         7.6360   -3.4060   -3.7010 hc        1 MOL      0.071849
    108 H49         6.7660   -1.8590   -3.6920 hc        1 MOL      0.071849
    109 H50         6.1440   -6.1230   -4.4940 hc        1 MOL      0.035555
    110 H51         7.6850   -5.4860   -3.9330 hc        1 MOL      0.035555
    111 H52         7.0080   -6.9760   -3.2540 hc        1 MOL      0.035555
    112 N10         2.4070   -4.1850   -1.8720 n         1 MOL     -0.195164
    113 C35         1.0910   -4.8050   -2.0050 c3        1 MOL     -0.113764
    114 C36         0.0190   -3.8140   -1.3660 c         1 MOL      0.675006
    115 O17         0.2510   -3.1590   -0.3220 o         1 MOL     -0.650613
    116 C37         1.0430   -6.1970   -1.2310 c3        1 MOL      0.426493
    117 C38        -0.3090   -6.8610   -1.1680 c3        1 MOL     -0.398693
    118 O18         1.6640   -6.0750    0.0270 oh        1 MOL     -0.595585
    119 H53         2.7570   -4.0200   -0.9380 hn        1 MOL      0.240567
    120 H54         0.7830   -5.0160   -3.0360 h1        1 MOL      0.084069
    121 H55         1.7270   -6.8110   -1.8250 h1        1 MOL     -0.033076
    122 H56         2.5590   -5.8000   -0.2060 ho        1 MOL      0.348079
    123 H57        -1.0370   -6.2660   -0.6310 hc        1 MOL      0.116512
    124 H58        -0.4900   -7.1480   -2.2060 hc        1 MOL      0.116512
    125 H59        -0.1820   -7.7930   -0.6060 hc        1 MOL      0.116512
    126 N11        -1.0660   -3.6620   -2.0790 n         1 MOL     -0.599891
    127 C39        -2.0600   -2.5210   -2.0450 c3        1 MOL     -0.012352
    128 C40        -3.4300   -3.0490   -2.2500 c         1 MOL      0.661943
    129 O19        -3.7080   -3.9020   -3.0990 o         1 MOL     -0.547650
    130 C41        -1.8330   -1.4340   -3.1750 c3        1 MOL      0.078323
    131 C42        -0.3870   -1.0260   -3.1500 c3        1 MOL     -0.385015
    132 O20        -2.5180   -0.1920   -2.8960 oh        1 MOL     -0.415534
    133 H60        -1.1310   -4.2240   -2.9240 hn        1 MOL      0.318647
    134 H61        -1.9250   -1.9950   -1.1060 h1        1 MOL      0.153520
    135 H62        -2.0490   -1.8110   -4.1730 h1        1 MOL      0.093811
    136 H63        -1.9990    0.2300   -2.2090 ho        1 MOL      0.235824
    137 H64         0.3300   -1.8000   -3.4420 hc        1 MOL      0.150511
    138 H65        -0.1240   -0.3410   -3.9550 hc        1 MOL      0.150511
    139 H66        -0.1060   -0.7150   -2.1450 hc        1 MOL      0.150511
    140 N12        -4.3500   -2.4650   -1.4820 n         1 MOL     -0.535532
    141 C43        -5.8140   -2.5430   -1.6500 c3        1 MOL     -0.138688
    142 C44        -6.6190   -2.2480   -0.3950 c         1 MOL      0.533091
    143 O21        -7.7800   -2.5480   -0.4220 o         1 MOL     -0.528897
    144 C45        -6.2600   -1.5870   -2.7690 c3        1 MOL     -0.158739
    145 C46        -6.3490   -0.0910   -2.4020 c3        1 MOL      0.282313
    146 C47        -6.6560    0.8570   -3.6310 c3        1 MOL     -0.189394
    147 C48        -5.6160    0.8170   -4.7620 c3        1 MOL     -0.238621
    148 N13        -4.3380    1.2870   -4.2690 n4        1 MOL     -0.236175
    149 H67        -3.9500   -1.8700   -0.7590 hn        1 MOL      0.304830
    150 H68        -6.1300   -3.5260   -2.0130 h1        1 MOL      0.172282
    151 H69        -7.2660   -1.7720   -3.1690 hc        1 MOL      0.080937
    152 H70        -5.5960   -1.7930   -3.6100 hc        1 MOL      0.080937
    153 H71        -5.4650    0.2710   -1.8650 hc        1 MOL     -0.074919
    154 H72        -7.1000    0.1040   -1.6420 hc        1 MOL     -0.074919
    155 H73        -6.7280    1.9150   -3.3670 hc        1 MOL      0.092813
    156 H74        -7.6100    0.5120   -4.0320 hc        1 MOL      0.092813
    157 H75        -5.9040    1.5300   -5.5320 hx        1 MOL      0.147924
    158 H76        -5.5840   -0.1610   -5.2280 hx        1 MOL      0.147924
    159 H77        -3.9440    0.7470   -3.5060 hn        1 MOL      0.261727
    160 H78        -3.7610    1.2460   -5.0990 hn        1 MOL      0.261727
    161 H79        -4.3500    2.2410   -3.9390 hn        1 MOL      0.261727
    162 N14        -5.9760   -1.7020    0.6580 n         1 MOL     -0.119854
    163 C49        -6.5780   -1.3470    1.9400 c3        1 MOL     -0.310541
    164 C50        -7.1130    0.0960    1.9880 c         1 MOL      0.283254
    165 O22        -6.4630    1.1250    1.7070 o         1 MOL     -0.374927
    166 C51        -5.6340   -1.6220    3.1730 c3        1 MOL      0.317272
    167 C52        -4.7540   -2.9080    2.9590 c3        1 MOL      0.190725
    168 C53        -3.9370   -3.2950    4.1890 c         1 MOL      0.562471
    169 O23        -4.4870   -3.3190    5.2850 o         1 MOL     -0.703113
    170 O24        -2.7050   -3.5130    4.1020 o         1 MOL     -0.703113
    171 H80        -5.0980   -1.2700    0.4290 hn        1 MOL      0.267386
    172 H81        -7.4410   -1.9980    2.0770 h1        1 MOL      0.120863
    173 H82        -6.2150   -1.6950    4.0870 hc        1 MOL     -0.062540
    174 H83        -4.9260   -0.7970    3.2800 hc        1 MOL     -0.062540
    175 H84        -4.0500   -2.6850    2.1630 hc        1 MOL     -0.121728
    176 H85        -5.3260   -3.6860    2.4450 hc        1 MOL     -0.121728
    177 N15        -8.3500    0.2560    2.4460 n         1 MOL     -0.187391
    178 C54        -9.1420    1.4490    2.2970 c3        1 MOL     -0.106335
    179 H86       -10.1940    1.1780    2.2040 h1        1 MOL      0.073808
    180 H87        -9.0080    2.0870    3.1700 h1        1 MOL      0.073808
    181 H88        -8.8260    1.9870    1.4030 h1        1 MOL      0.073808
    182 H89        -8.8630   -0.5380    2.8180 hn        1 MOL      0.253854
    183 Ca1        -0.2700   -2.7560    4.3840 Ca        1 MOL      1.795610
    184 O25        -1.8520   -0.6540    5.2070 oh        1 MOL     -0.969244
    185 H90        -1.9090    0.1020    4.6240 ho        1 MOL      0.482067
    186 H91        -2.6620   -0.6240    5.7200 ho        1 MOL      0.482067
    187 O26        -0.3590   -4.0990    2.0800 oh        1 MOL     -0.969244
    188 H92        -0.0800   -3.6140    1.3100 ho        1 MOL      0.482067
    189 H93        -1.2080   -4.4780    1.8410 ho        1 MOL      0.482067
    190 O27        -0.6860   -2.9520    7.0050 oh        1 MOL     -0.969244
    191 H94        -1.6350   -2.8640    7.1360 ho        1 MOL      0.482067
    192 H95        -0.3360   -3.1010    7.8770 ho        1 MOL      0.482067
@<TRIPOS>BOND
     1    1    2 1   
     2    1    4 1   
     3    1    5 1   
     4    1    6 1   
     5    2    3 2   
     6    2    7 1   
     7    7    8 1   
     8    7   15 1   
     9    8    9 1   
    10    8   11 1   
    11    8   16 1   
    12    9   10 2   
    13    9   19 1   
    14   11   12 1   
    15   11   17 1   
    16   11   18 1   
    17   12   13 1   
    18   12   14 1   
    19   19   20 1   
    20   19   28 1   
    21   20   21 1   
    22   20   23 1   
    23   20   29 1   
    24   21   22 2   
    25   21   41 1   
    26   23   24 1   
    27   23   30 1   
    28   23   31 1   
    29   24   25 1   
    30   24   32 1   
    31   24   33 1   
    32   25   26 1   
    33   25   34 1   
    34   25   35 1   
    35   26   27 1   
    36   26   36 1   
    37   26   37 1   
    38   27   38 1   
    39   27   39 1   
    40   27   40 1   
    41   41   42 1   
    42   41   49 1   
    43   42   43 1   
    44   42   45 1   
    45   42   50 1   
    46   43   44 2   
    47   43   53 1   
    48   45   46 1   
    49   45   51 1   
    50   45   52 1   
    51   46   47 1   
    52   46   48 1   
    53   53   54 1   
    54   53   57 1   
    55   54   55 1   
    56   54   58 1   
    57   54   59 1   
    58   55   56 2   
    59   55   60 1   
    60   60   61 1   
    61   60   68 1   
    62   61   62 1   
    63   61   64 1   
    64   61   69 1   
    65   62   63 2   
    66   62   72 1   
    67   64   65 1   
    68   64   70 1   
    69   64   71 1   
    70   65   66 1   
    71   65   67 1   
    72   72   73 1   
    73   72   76 1   
    74   73   74 1   
    75   73   77 1   
    76   73   78 1   
    77   74   75 2   
    78   74   79 1   
    79   79   80 1   
    80   79   86 1   
    81   80   81 1   
    82   80   83 1   
    83   80   87 1   
    84   81   82 2   
    85   81   93 1   
    86   83   84 1   
    87   83   85 1   
    88   83   88 1   
    89   84   90 1   
    90   84   91 1   
    91   84   92 1   
    92   85   89 1   
    93   93   94 1   
    94   93  101 1   
    95   94   95 1   
    96   94   97 1   
    97   94  102 1   
    98   95   96 2   
    99   95  112 1   
   100   97   98 1   
   101   97   99 1   
   102   97  103 1   
   103   98  100 1   
   104   98  104 1   
   105   98  105 1   
   106   99  106 1   
   107   99  107 1   
   108   99  108 1   
   109  100  109 1   
   110  100  110 1   
   111  100  111 1   
   112  112  113 1   
   113  112  119 1   
   114  113  114 1   
   115  113  116 1   
   116  113  120 1   
   117  114  115 2   
   118  114  126 1   
   119  116  117 1   
   120  116  118 1   
   121  116  121 1   
   122  117  123 1   
   123  117  124 1   
   124  117  125 1   
   125  118  122 1   
   126  126  127 1   
   127  126  133 1   
   128  127  128 1   
   129  127  130 1   
   130  127  134 1   
   131  128  129 2   
   132  128  140 1   
   133  130  131 1   
   134  130  132 1   
   135  130  135 1   
   136  131  137 1   
   137  131  138 1   
   138  131  139 1   
   139  132  136 1   
   140  140  141 1   
   141  140  149 1   
   142  141  142 1   
   143  141  144 1   
   144  141  150 1   
   145  142  143 2   
   146  142  162 1   
   147  144  145 1   
   148  144  151 1   
   149  144  152 1   
   150  145  146 1   
   151  145  153 1   
   152  145  154 1   
   153  146  147 1   
   154  146  155 1   
   155  146  156 1   
   156  147  148 1   
   157  147  157 1   
   158  147  158 1   
   159  148  159 1   
   160  148  160 1   
   161  148  161 1   
   162  162  163 1   
   163  162  171 1   
   164  163  164 1   
   165  163  166 1   
   166  163  172 1   
   167  164  165 2   
   168  164  177 1   
   169  166  167 1   
   170  166  173 1   
   171  166  174 1   
   172  167  168 1   
   173  167  175 1   
   174  167  176 1   
   175  168  169 1   
   176  168  170 1   
   177  177  178 1   
   178  177  182 1   
   179  178  179 1   
   180  178  180 1   
   181  178  181 1   
   182  184  185 1   
   183  184  186 1   
   184  187  188 1   
   185  187  189 1   
   186  190  191 1   
   187  190  192 1   
@<TRIPOS>SUBSTRUCTURE
     1 MOL         1 TEMP              0 ****  ****    0 ROOT
