@<TRIPOS>MOLECULE
MOL
  184   179     1     0     0
SMALL
resp


@<TRIPOS>ATOM
      1 C1          3.5980   -5.0460    4.5350 c3        1 MOL     -0.425607
      2 C2          4.3270   -5.4060    3.1860 c         1 MOL      0.708027
      3 O1          3.7890   -6.1180    2.3300 o         1 MOL     -0.579783
      4 H1          3.5340   -5.9360    5.1610 hc        1 MOL      0.099977
      5 H2          4.1610   -4.2740    5.0590 hc        1 MOL      0.099977
      6 H3          2.5940   -4.6810    4.3200 hc        1 MOL      0.099977
      7 N1          5.5090   -4.8210    2.9680 n         1 MOL     -0.654337
      8 C3          6.4130   -5.2000    1.8620 c3        1 MOL      0.387519
      9 C4          6.4650   -3.9790    0.9140 c         1 MOL      0.521758
     10 O2          6.5750   -2.8270    1.4280 o         1 MOL     -0.577124
     11 C5          7.8040   -5.5640    2.4320 c3        1 MOL     -0.360609
     12 C6          8.6500   -6.2970    1.4150 c         1 MOL      0.740024
     13 O3          8.0820   -7.0050    0.4950 o         1 MOL     -0.720395
     14 O4          9.8720   -6.4500    1.4420 o         1 MOL     -0.720395
     15 H4          5.9050   -4.2660    3.7090 hn        1 MOL      0.316390
     16 H5          6.0390   -5.9970    1.2210 h1        1 MOL     -0.016445
     17 H6          7.6360   -6.2140    3.2930 hc        1 MOL      0.056969
     18 H7          8.3240   -4.6720    2.7690 hc        1 MOL      0.056969
     19 N2          6.4410   -4.2880   -0.3690 n         1 MOL     -0.598068
     20 C7          6.3330   -3.3010   -1.4870 c3        1 MOL      0.615026
     21 C8          4.9120   -3.3420   -2.0440 c         1 MOL      0.292907
     22 O5          4.2640   -4.3940   -1.9830 o         1 MOL     -0.508970
     23 C9          7.4570   -3.5360   -2.5050 c3        1 MOL     -0.453341
     24 H8          6.3590   -5.2630   -0.6150 hn        1 MOL      0.279410
     25 H9          6.5100   -2.3230   -1.0380 h1        1 MOL     -0.037747
     26 H10         7.3590   -2.8920   -3.3770 hc        1 MOL      0.107682
     27 H11         8.4100   -3.2470   -2.0470 hc        1 MOL      0.107682
     28 H12         7.4490   -4.5100   -2.9810 hc        1 MOL      0.107682
     29 N3          4.4330   -2.3770   -2.7950 n         1 MOL     -0.238180
     30 C10         5.0480   -1.1290   -3.1700 c3        1 MOL      0.087173
     31 C11         4.6630    0.0340   -2.1900 c         1 MOL      0.268711
     32 O6          3.6440    0.0060   -1.5190 o         1 MOL     -0.466475
     33 C12         4.4830   -0.8100   -4.6230 c3        1 MOL     -0.307747
     34 C13         2.9180   -0.8420   -4.7200 c         1 MOL      0.763111
     35 O7          2.4440   -0.8180   -5.8490 o         1 MOL     -0.688559
     36 O8          2.0920   -0.9170   -3.7890 o         1 MOL     -0.688559
     37 H13         3.5160   -2.5220   -3.2020 hn        1 MOL      0.213075
     38 H14         6.1330   -1.1640   -3.1370 h1        1 MOL      0.018591
     39 H15         5.0090   -1.4880   -5.2870 hc        1 MOL      0.069394
     40 H16         4.7240    0.2270   -4.8700 hc        1 MOL      0.069394
     41 N4          5.4710    1.0430   -2.0310 n         1 MOL     -0.318182
     42 C14         5.1990    2.1900   -1.1640 c3        1 MOL      0.092914
     43 C15         5.6220    2.0350    0.3150 c         1 MOL      0.498720
     44 O9          5.8210    0.9290    0.8170 o         1 MOL     -0.493927
     45 H17         6.3480    1.1090   -2.5210 hn        1 MOL      0.272019
     46 H18         4.1330    2.4620   -1.1810 h1        1 MOL      0.020683
     47 H19         5.7440    2.9890   -1.6790 h1        1 MOL      0.020683
     48 N5          5.7560    3.1440    1.0490 n         1 MOL     -0.395360
     49 C16         5.5310    4.5540    0.8660 c3        1 MOL      0.001022
     50 C17         4.5270    5.2220    1.8750 c         1 MOL      0.443379
     51 O10         4.3500    6.5080    1.7780 o         1 MOL     -0.509491
     52 C18         6.8760    5.2470    1.0200 c3        1 MOL     -0.221854
     53 C19         7.7840    4.8350   -0.0850 c         1 MOL      0.604421
     54 N6          7.4540    5.1240   -1.3330 n         1 MOL     -0.716155
     55 O11         8.7590    4.1480    0.1010 o         1 MOL     -0.530795
     56 H20         5.9760    2.8920    2.0030 hn        1 MOL      0.265886
     57 H21         5.1450    4.7860   -0.1230 h1        1 MOL      0.094866
     58 H22         7.3120    5.1280    2.0120 hc        1 MOL      0.082807
     59 H23         6.6830    6.3180    0.9090 hc        1 MOL      0.082807
     60 H24         6.6250    5.6480   -1.5690 hn        1 MOL      0.343463
     61 H25         8.2210    4.9810   -1.9660 hn        1 MOL      0.343463
     62 N7          3.7740    4.4920    2.6590 n         1 MOL     -0.182950
     63 C20         2.8550    4.9650    3.6760 c3        1 MOL     -0.247796
     64 C21         1.5620    5.6530    3.0920 c         1 MOL      0.500696
     65 O12         1.0360    6.5740    3.7310 o         1 MOL     -0.535581
     66 H26         3.9300    3.4960    2.5990 hn        1 MOL      0.207725
     67 H27         3.2890    5.6820    4.3810 h1        1 MOL      0.129585
     68 H28         2.5330    4.0870    4.2350 h1        1 MOL      0.129585
     69 N8          1.1190    5.2150    1.9410 n         1 MOL     -0.185445
     70 C22        -0.3020    5.5600    1.5310 c3        1 MOL     -0.006491
     71 C23        -1.1200    4.2620    1.2540 c         1 MOL      0.375091
     72 O13        -0.5440    3.1840    1.2570 o         1 MOL     -0.518110
     73 C24        -0.3600    6.5190    0.3140 c3        1 MOL      0.274424
     74 C25         0.2980    7.8890    0.5250 c3        1 MOL     -0.152606
     75 O14         0.3880    6.0250   -0.7850 oh        1 MOL     -0.638573
     76 H29         1.6590    4.4810    1.5230 hn        1 MOL      0.210524
     77 H30        -0.7840    6.0170    2.3960 h1        1 MOL      0.080852
     78 H31        -1.3510    6.8460   -0.0050 h1        1 MOL      0.031157
     79 H32        -0.1500    6.1620   -1.5710 ho        1 MOL      0.411400
     80 H33         1.0660    7.7790    1.2920 hc        1 MOL      0.035162
     81 H34         0.6100    8.4600   -0.3550 hc        1 MOL      0.035162
     82 H35        -0.4860    8.5200    0.9550 hc        1 MOL      0.035162
     83 N9         -2.5070    4.3100    1.2320 n         1 MOL     -0.310842
     84 C26        -3.3850    3.2050    0.9800 c3        1 MOL     -0.083038
     85 C27        -3.8860    3.2310   -0.5190 c         1 MOL      0.248388
     86 O15        -4.6960    4.1150   -0.9130 o         1 MOL     -0.525486
     87 C28        -4.5850    3.1500    1.9910 c3        1 MOL      0.257349
     88 C29        -5.4390    1.8720    1.7370 c3        1 MOL      0.172140
     89 C30        -4.0450    3.1650    3.4320 c3        1 MOL     -0.310444
     90 C31        -6.5910    1.6940    2.6390 c3        1 MOL     -0.108659
     91 H36        -3.0040    5.1900    1.3150 hn        1 MOL      0.238012
     92 H37        -2.7990    2.2910    1.1320 h1        1 MOL      0.217547
     93 H38        -5.3050    3.9670    1.9290 hc        1 MOL     -0.023613
     94 H39        -4.7300    1.0470    1.8140 hc        1 MOL     -0.069699
     95 H40        -5.8110    1.8190    0.7210 hc        1 MOL     -0.069699
     96 H41        -4.7620    3.0340    4.2400 hc        1 MOL      0.054957
     97 H42        -3.2490    2.4260    3.5550 hc        1 MOL      0.054957
     98 H43        -3.6430    4.1590    3.5990 hc        1 MOL      0.054957
     99 H44        -7.2140    0.8870    2.2640 hc        1 MOL      0.004419
    100 H45        -6.1450    1.4150    3.5970 hc        1 MOL      0.004419
    101 H46        -7.1570    2.6220    2.7480 hc        1 MOL      0.004419
    102 N10        -3.6580    2.0370   -1.1960 n         1 MOL      0.035287
    103 C32        -4.2250    1.6880   -2.5140 c3        1 MOL      0.009587
    104 C33        -5.3890    0.7210   -2.4680 c         1 MOL      0.333308
    105 O16        -6.1940    0.6190   -3.4310 o         1 MOL     -0.536223
    106 C34        -3.1240    1.0520   -3.3830 c3        1 MOL     -0.051928
    107 C35        -1.6960    1.6460   -3.3110 c         1 MOL      0.802386
    108 O17        -0.6790    0.9790   -3.4990 o         1 MOL     -0.758395
    109 O18        -1.6800    2.8740   -3.0990 o         1 MOL     -0.758395
    110 H47        -3.1210    1.3180   -0.7300 hn        1 MOL      0.077194
    111 H48        -4.5700    2.5820   -3.0370 h1        1 MOL      0.088509
    112 H49        -3.4950    1.0280   -4.4110 hc        1 MOL      0.000841
    113 H50        -2.9990    0.0080   -3.0760 hc        1 MOL      0.000841
    114 N11        -5.6150    0.0320   -1.3400 n         1 MOL     -0.232955
    115 C36        -6.7080   -0.9800   -1.2320 c3        1 MOL      0.309240
    116 C37        -6.2150   -2.1670   -0.3780 c         1 MOL      0.227905
    117 O19        -6.8150   -2.6120    0.5840 o         1 MOL     -0.459346
    118 C38        -7.9010   -0.2740   -0.5820 c3        1 MOL     -0.166006
    119 C39        -9.2910   -0.9150   -0.7600 ca        1 MOL     -0.001169
    120 C40        -9.9800   -0.6900   -1.9580 ca        1 MOL     -0.060101
    121 C41        -9.8330   -1.7770    0.1580 ca        1 MOL     -0.060101
    122 C42       -11.2080   -1.2860   -2.2300 ca        1 MOL     -0.199066
    123 C43       -11.1280   -2.3320   -0.0220 ca        1 MOL     -0.199066
    124 C44       -11.7760   -2.1470   -1.2220 ca        1 MOL     -0.058186
    125 H51        -4.8730    0.0000   -0.6520 hn        1 MOL      0.189563
    126 H52        -6.9680   -1.2780   -2.2430 h1        1 MOL      0.010484
    127 H53        -7.9590    0.7520   -0.9550 hc        1 MOL      0.077928
    128 H54        -7.6390   -0.1150    0.4690 hc        1 MOL      0.077928
    129 H55        -9.4400   -0.1860   -2.7440 ha        1 MOL      0.088881
    130 H56        -9.1750   -1.9640    1.0030 ha        1 MOL      0.088881
    131 H57       -11.7130   -1.1510   -3.1720 ha        1 MOL      0.119551
    132 H58       -11.5580   -3.0310    0.6820 ha        1 MOL      0.119551
    133 H59       -12.7070   -2.6710   -1.3800 ha        1 MOL      0.081592
    134 N12        -5.1720   -2.8630   -0.8110 n         1 MOL      0.068295
    135 C45        -4.7260   -4.1970   -0.2960 c3        1 MOL     -0.120467
    136 C46        -4.2550   -4.0690    1.1750 c         1 MOL      0.174638
    137 O20        -4.3390   -5.0150    1.9760 o         1 MOL     -0.462752
    138 C47        -3.6210   -4.7320   -1.2630 c3        1 MOL     -0.011078
    139 C48        -4.0200   -4.1430   -2.5770 c3        1 MOL     -0.170961
    140 C49        -4.4140   -2.7340   -2.0890 c3        1 MOL     -0.082376
    141 H60        -5.6160   -4.8410   -0.3030 h1        1 MOL      0.122180
    142 H61        -2.6460   -4.3620   -0.9540 hc        1 MOL      0.066516
    143 H62        -3.5910   -5.8130   -1.4020 hc        1 MOL      0.066516
    144 H63        -3.1210   -4.1300   -3.1880 hc        1 MOL      0.066157
    145 H64        -4.8590   -4.7090   -2.9890 hc        1 MOL      0.066157
    146 H65        -3.4910   -2.2070   -1.8660 h1        1 MOL      0.078674
    147 H66        -5.0530   -2.3110   -2.8650 h1        1 MOL      0.078674
    148 N13        -3.6920   -2.9490    1.6520 n         1 MOL      0.089739
    149 C50        -3.1080   -2.6670    2.9750 c3        1 MOL     -0.238455
    150 C51        -4.1340   -2.7610    4.1510 c         1 MOL      0.429742
    151 O21        -3.8730   -3.4730    5.1060 o         1 MOL     -0.504374
    152 C52        -2.3020   -1.3540    3.0970 c3        1 MOL      0.253237
    153 C53        -1.3670   -1.0450    1.8910 c3        1 MOL     -0.116053
    154 C54        -1.9680   -0.4650    0.5600 c         1 MOL      0.771904
    155 O22        -1.2480    0.1560   -0.2820 o         1 MOL     -0.763395
    156 O23        -3.2150   -0.4510    0.3980 o         1 MOL     -0.763395
    157 H67        -3.6970   -2.1720    1.0100 hn        1 MOL      0.088709
    158 H68        -2.3980   -3.4790    3.1440 h1        1 MOL      0.111658
    159 H69        -1.6320   -1.4030    3.9540 hc        1 MOL     -0.052669
    160 H70        -3.0870   -0.6110    3.2090 hc        1 MOL     -0.052669
    161 H71        -0.6880   -1.8290    1.5600 hc        1 MOL     -0.003237
    162 H72        -0.7290   -0.2210    2.2320 hc        1 MOL     -0.003237
    163 N14        -5.3350   -2.2000    3.9100 n         1 MOL     -0.213894
    164 C55        -6.5450   -2.4770    4.7540 c3        1 MOL     -0.120039
    165 H73        -6.2300   -2.8430    5.7310 h1        1 MOL      0.070619
    166 H74        -7.1200   -1.5590    4.8790 h1        1 MOL      0.070619
    167 H75        -7.1640   -3.2300    4.2670 h1        1 MOL      0.070619
    168 H76        -5.4700   -1.5930    3.1130 hn        1 MOL      0.226882
    169 Ca1         0.8320    0.0990   -1.7060 Ca        1 MOL      1.808243
    170 O24         2.1840    2.3040   -3.3890 oh        1 MOL     -0.855660
    171 H77         2.8570    2.4550   -4.0560 ho        1 MOL      0.415354
    172 H78         1.4480    2.8520   -3.6620 ho        1 MOL      0.415354
    173 O25        -0.2800   -2.2380   -2.6590 oh        1 MOL     -0.855660
    174 O26         0.0580    2.5920   -1.1980 oh        1 MOL     -0.855660
    175 H79         0.0870   -2.2430   -3.5460 ho        1 MOL      0.415354
    176 H80        -0.2440    3.0730   -0.4250 ho        1 MOL      0.415354
    177 H81        -0.3810   -3.1660   -2.4340 ho        1 MOL      0.415354
    178 H82        -0.5770    2.7930   -1.8770 ho        1 MOL      0.415354
    179 O27         1.4190    1.0140    0.7190 oh        1 MOL     -0.855660
    180 H83         1.7390    0.5630    1.4980 ho        1 MOL      0.415354
    181 H84         0.7700    1.6410    1.0610 ho        1 MOL      0.415354
    182 O28         1.7820   -2.0190   -0.3960 oh        1 MOL     -0.855660
    183 H85         1.7850   -2.9290   -0.1180 ho        1 MOL      0.415354
    184 H86         2.5000   -1.6120    0.0990 ho        1 MOL      0.415354
@<TRIPOS>BOND
     1    1    2 1   
     2    1    4 1   
     3    1    5 1   
     4    1    6 1   
     5    2    3 2   
     6    2    7 1   
     7    7    8 1   
     8    7   15 1   
     9    8    9 1   
    10    8   11 1   
    11    8   16 1   
    12    9   10 2   
    13    9   19 1   
    14   11   12 1   
    15   11   17 1   
    16   11   18 1   
    17   12   13 1   
    18   12   14 1   
    19   19   20 1   
    20   19   24 1   
    21   20   21 1   
    22   20   23 1   
    23   20   25 1   
    24   21   22 2   
    25   21   29 1   
    26   23   26 1   
    27   23   27 1   
    28   23   28 1   
    29   29   30 1   
    30   29   37 1   
    31   30   31 1   
    32   30   33 1   
    33   30   38 1   
    34   31   32 2   
    35   31   41 1   
    36   33   34 1   
    37   33   39 1   
    38   33   40 1   
    39   34   35 1   
    40   34   36 1   
    41   41   42 1   
    42   41   45 1   
    43   42   43 1   
    44   42   46 1   
    45   42   47 1   
    46   43   44 2   
    47   43   48 1   
    48   48   49 1   
    49   48   56 1   
    50   49   50 1   
    51   49   52 1   
    52   49   57 1   
    53   50   51 2   
    54   50   62 1   
    55   52   53 1   
    56   52   58 1   
    57   52   59 1   
    58   53   54 1   
    59   53   55 2   
    60   54   60 1   
    61   54   61 1   
    62   62   63 1   
    63   62   66 1   
    64   63   64 1   
    65   63   67 1   
    66   63   68 1   
    67   64   65 2   
    68   64   69 1   
    69   69   70 1   
    70   69   76 1   
    71   70   71 1   
    72   70   73 1   
    73   70   77 1   
    74   71   72 2   
    75   71   83 1   
    76   73   74 1   
    77   73   75 1   
    78   73   78 1   
    79   74   80 1   
    80   74   81 1   
    81   74   82 1   
    82   75   79 1   
    83   83   84 1   
    84   83   91 1   
    85   84   85 1   
    86   84   87 1   
    87   84   92 1   
    88   85   86 2   
    89   85  102 1   
    90   87   88 1   
    91   87   89 1   
    92   87   93 1   
    93   88   90 1   
    94   88   94 1   
    95   88   95 1   
    96   89   96 1   
    97   89   97 1   
    98   89   98 1   
    99   90   99 1   
   100   90  100 1   
   101   90  101 1   
   102  102  103 1   
   103  102  110 1   
   104  103  104 1   
   105  103  106 1   
   106  103  111 1   
   107  104  105 2   
   108  104  114 1   
   109  106  107 1   
   110  106  112 1   
   111  106  113 1   
   112  107  108 1   
   113  107  109 1   
   114  114  115 1   
   115  114  125 1   
   116  115  116 1   
   117  115  118 1   
   118  115  126 1   
   119  116  117 2   
   120  116  134 1   
   121  118  119 1   
   122  118  127 1   
   123  118  128 1   
   124  119  120 ar  
   125  119  121 ar  
   126  120  122 ar  
   127  120  129 1   
   128  121  123 ar  
   129  121  130 1   
   130  122  124 ar  
   131  122  131 1   
   132  123  124 ar  
   133  123  132 1   
   134  124  133 1   
   135  134  135 1   
   136  134  140 1   
   137  135  136 1   
   138  135  138 1   
   139  135  141 1   
   140  136  137 2   
   141  136  148 1   
   142  138  139 1   
   143  138  142 1   
   144  138  143 1   
   145  139  140 1   
   146  139  144 1   
   147  139  145 1   
   148  140  146 1   
   149  140  147 1   
   150  148  149 1   
   151  148  157 1   
   152  149  150 1   
   153  149  152 1   
   154  149  158 1   
   155  150  151 2   
   156  150  163 1   
   157  152  153 1   
   158  152  159 1   
   159  152  160 1   
   160  153  154 1   
   161  153  161 1   
   162  153  162 1   
   163  154  155 1   
   164  154  156 1   
   165  163  164 1   
   166  163  168 1   
   167  164  165 1   
   168  164  166 1   
   169  164  167 1   
   170  170  171 1   
   171  170  172 1   
   172  173  175 1   
   173  173  177 1   
   174  174  176 1   
   175  174  178 1   
   176  179  180 1   
   177  179  181 1   
   178  182  183 1   
   179  182  184 1   
@<TRIPOS>SUBSTRUCTURE
     1 MOL         1 TEMP              0 ****  ****    0 ROOT
