@<TRIPOS>MOLECULE
MOL
  192   187     1     0     0
SMALL
resp


@<TRIPOS>ATOM
      1 C1          3.5730    4.5730    1.0600 c3        1 MOL     -0.261602
      2 C2          2.2860    4.5930    0.1530 c         1 MOL      0.744475
      3 O1          1.8230    3.5190   -0.1620 o         1 MOL     -0.467249
      4 H1          4.4260    4.2360    0.4720 hc        1 MOL      0.046571
      5 H2          3.7660    5.5760    1.4380 hc        1 MOL      0.046571
      6 H3          3.4170    3.8930    1.8970 hc        1 MOL      0.046571
      7 N1          1.8210    5.7220   -0.4230 n         1 MOL     -0.773795
      8 C3          0.5940    5.9370   -1.2480 c3        1 MOL      0.157425
      9 C4         -0.6880    5.2640   -0.6870 c         1 MOL      0.663441
     10 O2         -1.6050    4.9510   -1.4500 o         1 MOL     -0.569173
     11 C5          0.8890    5.5680   -2.7350 c3        1 MOL     -0.315301
     12 C6          2.3170    5.7350   -3.2340 c         1 MOL      0.843173
     13 O3          2.5960    6.6820   -3.9820 o         1 MOL     -0.780062
     14 O4          3.1970    4.9420   -2.8410 o         1 MOL     -0.780062
     15 H4          2.2380    6.6230   -0.2020 hn        1 MOL      0.322426
     16 H5          0.3530    7.0010   -1.2560 h1        1 MOL      0.067257
     17 H6          0.2140    6.1360   -3.3740 hc        1 MOL      0.105948
     18 H7          0.6560    4.5090   -2.8420 hc        1 MOL      0.105948
     19 N2         -0.7940    5.0860    0.6370 n         1 MOL     -0.672293
     20 C7         -1.8950    4.2660    1.1840 c3        1 MOL     -0.010521
     21 C8         -3.1160    5.1800    1.2570 c         1 MOL      0.775536
     22 O5         -2.9780    6.4030    1.4450 o         1 MOL     -0.640468
     23 C9         -1.5030    3.6870    2.6060 c3        1 MOL      0.209132
     24 C10        -0.7710    4.6330    3.5840 c3        1 MOL      0.180424
     25 C11        -0.5820    2.4350    2.3700 c3        1 MOL     -0.188919
     26 C12        -0.6500    4.0900    5.0060 c3        1 MOL     -0.303515
     27 H8         -0.0500    5.4470    1.2230 hn        1 MOL      0.296424
     28 H9         -2.1370    3.4170    0.5450 h1        1 MOL      0.147938
     29 H10        -2.4480    3.3190    3.0180 hc        1 MOL     -0.033154
     30 H11        -1.4110    5.4960    3.7240 hc        1 MOL     -0.045808
     31 H12         0.2000    4.8620    3.1420 hc        1 MOL     -0.045808
     32 H13        -1.0990    1.8000    1.6480 hc        1 MOL      0.049237
     33 H14         0.3880    2.6560    1.9450 hc        1 MOL      0.049237
     34 H15        -0.5140    1.9200    3.3270 hc        1 MOL      0.049237
     35 H16        -0.0080    3.2180    4.8510 hc        1 MOL      0.066520
     36 H17        -0.3090    4.8640    5.6940 hc        1 MOL      0.066520
     37 H18        -1.6180    3.7640    5.4040 hc        1 MOL      0.066520
     38 N3         -4.3330    4.7580    1.0770 n         1 MOL     -0.632641
     39 C13        -4.8500    3.3860    1.0950 c3        1 MOL     -0.015882
     40 C14        -5.8990    3.0760   -0.0270 c         1 MOL      0.593821
     41 O6         -6.0370    1.9740   -0.5340 o         1 MOL     -0.548452
     42 C15        -5.4830    2.9130    2.4710 c3        1 MOL     -0.392536
     43 C16        -6.7020    3.7320    2.7540 c         1 MOL      0.817492
     44 O7         -7.7850    3.1590    2.6780 o         1 MOL     -0.734628
     45 O8         -6.7080    4.9250    3.0630 o         1 MOL     -0.734628
     46 H19        -4.9300    5.5250    1.3510 hn        1 MOL      0.301161
     47 H20        -4.1220    2.6000    0.8750 h1        1 MOL      0.071861
     48 H21        -4.7780    2.9820    3.2960 hc        1 MOL      0.100742
     49 H22        -5.7690    1.8800    2.2960 hc        1 MOL      0.100742
     50 N4         -6.7340    4.0630   -0.3390 n         1 MOL     -0.402562
     51 C17        -7.9510    4.0150   -1.1840 c3        1 MOL     -0.152019
     52 C18        -9.0590    3.1130   -0.6650 c         1 MOL      0.655176
     53 O9        -10.1810    3.5700   -0.5100 o         1 MOL     -0.620775
     54 H23        -6.6990    4.9110    0.2210 hn        1 MOL      0.330851
     55 H24        -7.6730    3.7280   -2.2050 h1        1 MOL      0.080942
     56 H25        -8.4760    4.9630   -1.2740 h1        1 MOL      0.080942
     57 N5         -8.7890    1.8820   -0.3900 n         1 MOL     -0.417672
     58 C19        -9.7340    0.8010   -0.0750 c3        1 MOL      0.116202
     59 C20        -9.1450   -0.2790    0.9180 c         1 MOL      0.384152
     60 O10        -9.8730   -1.1820    1.3170 o         1 MOL     -0.555099
     61 C21       -10.3840    0.2640   -1.3660 c3        1 MOL     -0.337460
     62 C22        -9.3910   -0.1830   -2.4950 c         1 MOL      0.716934
     63 O11        -9.7830   -0.3330   -3.6700 o         1 MOL     -0.712480
     64 O12        -8.2070   -0.3660   -2.2440 o         1 MOL     -0.712480
     65 H26        -7.8520    1.6260   -0.6830 hn        1 MOL      0.346870
     66 H27       -10.6250    1.1020    0.4740 h1        1 MOL      0.092988
     67 H28       -11.0970    0.9890   -1.7590 hc        1 MOL      0.067273
     68 H29       -11.0290   -0.5560   -1.0780 hc        1 MOL      0.067273
     69 N6         -7.8560   -0.2590    1.2920 n         1 MOL     -0.044179
     70 C23        -7.2290   -1.1560    2.2830 c3        1 MOL     -0.198198
     71 C24        -6.5700   -2.4120    1.7090 c         1 MOL      0.652696
     72 O13        -6.1720   -3.3060    2.4890 o         1 MOL     -0.605616
     73 H30        -7.3240    0.5260    0.9360 hn        1 MOL      0.084720
     74 H31        -7.9350   -1.4270    3.0640 h1        1 MOL      0.097942
     75 H32        -6.5140   -0.4670    2.7440 h1        1 MOL      0.097942
     76 N7         -6.5510   -2.5450    0.3790 n         1 MOL     -0.395049
     77 C25        -6.0910   -3.6780   -0.5250 c3        1 MOL     -0.081876
     78 C26        -4.6500   -4.1210   -0.5210 c         1 MOL      0.585692
     79 O14        -4.2100   -4.8720   -1.4490 o         1 MOL     -0.520537
     80 C27        -7.1890   -4.7910   -0.4660 c3        1 MOL     -0.099387
     81 C28        -8.4290   -4.3630   -1.2810 c3        1 MOL     -0.095986
     82 C29        -9.5470   -5.4150   -1.3600 c         1 MOL      0.657510
     83 N8        -10.6060   -5.1200   -2.0490 n         1 MOL     -0.778656
     84 O15        -9.4750   -6.5100   -0.7920 o         1 MOL     -0.604580
     85 H33        -6.9220   -1.6960   -0.0230 hn        1 MOL      0.246140
     86 H34        -6.1970   -3.2740   -1.5360 h1        1 MOL      0.145334
     87 H35        -7.4060   -5.0510    0.5700 hc        1 MOL      0.061717
     88 H36        -6.8240   -5.7230   -0.9080 hc        1 MOL      0.061717
     89 H37        -8.0990   -4.2140   -2.3060 hc        1 MOL      0.061322
     90 H38        -8.8810   -3.4560   -0.8890 hc        1 MOL      0.061322
     91 H39       -10.7750   -4.1860   -2.3890 hn        1 MOL      0.348477
     92 H40       -11.3460   -5.8130   -2.0610 hn        1 MOL      0.348477
     93 N9         -3.8890   -3.5930    0.4200 n         1 MOL     -0.484338
     94 C30        -2.4960   -4.0030    0.7000 c3        1 MOL      0.088250
     95 C31        -1.4560   -3.5270   -0.2860 c         1 MOL      0.553246
     96 O16        -1.6440   -2.5580   -0.9960 o         1 MOL     -0.507492
     97 C32        -2.0610   -3.6290    2.0470 c3        1 MOL      0.420909
     98 C33        -2.3420   -2.1630    2.4650 c3        1 MOL     -0.296150
     99 C34        -2.5400   -4.6670    3.1050 c3        1 MOL     -0.296150
    100 H41        -4.3620   -3.1220    1.1830 hn        1 MOL      0.259529
    101 H42        -2.5260   -5.0900    0.6480 h1        1 MOL      0.027589
    102 H43        -0.9810   -3.7560    2.0650 hc        1 MOL     -0.036099
    103 H44        -2.0610   -1.6090    1.5690 hc        1 MOL      0.052769
    104 H45        -3.4090   -2.0210    2.6210 hc        1 MOL      0.052769
    105 H46        -1.5990   -1.8790    3.2040 hc        1 MOL      0.052769
    106 H47        -3.5840   -4.4190    3.3220 hc        1 MOL      0.052769
    107 H48        -2.5370   -5.6820    2.7130 hc        1 MOL      0.052769
    108 H49        -1.8310   -4.5070    3.9170 hc        1 MOL      0.052769
    109 N10        -0.3860   -4.2950   -0.4550 n         1 MOL     -0.617208
    110 C35         0.4530   -4.2670   -1.6820 c3        1 MOL      0.474226
    111 C36         1.9210   -4.5200   -1.3020 c         1 MOL      0.514658
    112 O17         2.1840   -5.2010   -0.2660 o         1 MOL     -0.568672
    113 C37         0.0410   -5.4150   -2.6790 c3        1 MOL     -0.458324
    114 C38        -1.0720   -5.1160   -3.6450 c         1 MOL      0.760955
    115 N11        -0.9430   -4.0980   -4.5130 n         1 MOL     -0.831689
    116 O18        -2.0610   -5.8310   -3.5610 o         1 MOL     -0.547154
    117 H50        -0.2300   -5.1200    0.1220 hn        1 MOL      0.270026
    118 H51         0.3320   -3.2470   -2.0460 h1        1 MOL     -0.007599
    119 H52        -0.3260   -6.3120   -2.1780 hc        1 MOL      0.090999
    120 H53         0.8500   -5.7020   -3.3590 hc        1 MOL      0.090999
    121 H54        -0.0700   -3.6040   -4.5850 hn        1 MOL      0.362189
    122 H55        -1.6560   -3.8780   -5.2040 hn        1 MOL      0.362189
    123 N12         2.8710   -3.8980   -1.9280 n         1 MOL     -0.610382
    124 C39         4.2570   -4.0530   -1.4200 c3        1 MOL      0.447146
    125 C40         4.5420   -3.1720   -0.2450 c         1 MOL      0.533453
    126 O19         4.0670   -2.0350   -0.2230 o         1 MOL     -0.572762
    127 C41         5.1840   -3.7360   -2.6300 c3        1 MOL     -0.410891
    128 C42         6.6850   -3.9520   -2.4950 ca        1 MOL      0.080251
    129 C43         7.2790   -5.1260   -3.0250 ca        1 MOL     -0.136662
    130 C44         7.5490   -2.9730   -1.9020 ca        1 MOL     -0.136662
    131 C45         8.6450   -5.3550   -2.9600 ca        1 MOL     -0.311861
    132 C46         8.9490   -3.1580   -1.9260 ca        1 MOL     -0.311861
    133 C47         9.4730   -4.3920   -2.4420 ca        1 MOL      0.392041
    134 O20        10.8180   -4.6610   -2.4300 oh        1 MOL     -0.496603
    135 H56         2.6510   -3.2190   -2.6430 hn        1 MOL      0.284119
    136 H57         4.3930   -5.0720   -1.0550 h1        1 MOL     -0.005721
    137 H58         5.0070   -2.7080   -2.9370 hc        1 MOL      0.119992
    138 H59         4.7130   -4.3180   -3.4240 hc        1 MOL      0.119992
    139 H60         6.6680   -5.9060   -3.4670 ha        1 MOL      0.105904
    140 H61         7.2170   -2.0220   -1.5270 ha        1 MOL      0.105904
    141 H62         9.0380   -6.2860   -3.3120 ha        1 MOL      0.156835
    142 H63         9.6600   -2.4720   -1.5100 ha        1 MOL      0.156835
    143 H64        11.0080   -5.4710   -2.9040 ho        1 MOL      0.339182
    144 N13         5.3640   -3.6440    0.6790 n         1 MOL     -0.524358
    145 C48         5.8840   -2.8900    1.8420 c3        1 MOL      0.123951
    146 C49         7.3730   -2.5130    1.5660 c         1 MOL      0.435214
    147 O21         8.2380   -3.3180    1.2460 o         1 MOL     -0.468075
    148 C50         5.5750   -3.7400    3.1080 c3        1 MOL     -0.007218
    149 C51         6.2060   -3.0210    4.3390 c3        1 MOL     -0.114800
    150 C52         5.5830   -3.6180    5.6800 c         1 MOL      0.707853
    151 O22         4.9520   -2.8230    6.4180 o         1 MOL     -0.732612
    152 O23         5.7280   -4.8000    5.8920 o         1 MOL     -0.732612
    153 H65         5.6180   -4.6230    0.6390 hn        1 MOL      0.285980
    154 H66         5.3400   -1.9590    1.8210 h1        1 MOL      0.119645
    155 H67         5.9980   -4.7360    2.9370 hc        1 MOL      0.029860
    156 H68         4.5200   -3.9580    3.2850 hc        1 MOL      0.029860
    157 H69         6.0380   -1.9500    4.3830 hc        1 MOL     -0.009766
    158 H70         7.2770   -3.2240    4.2650 hc        1 MOL     -0.009766
    159 N14         7.7890   -1.2180    1.8470 n         1 MOL     -0.361380
    160 C53         7.1180   -0.0890    2.4060 c3        1 MOL      0.105687
    161 C54         7.7590    0.2820    3.7530 c         1 MOL      0.463606
    162 O24         8.7520   -0.2960    4.1750 o         1 MOL     -0.519488
    163 C55         7.0220    1.1400    1.3690 c3        1 MOL     -0.010371
    164 C56         6.8630    0.8070   -0.0750 c3        1 MOL     -0.219470
    165 C57         6.4900    2.0890   -0.8280 c         1 MOL      0.677637
    166 O25         7.3570    2.7930   -1.3770 o         1 MOL     -0.745969
    167 O26         5.3100    2.4430   -0.9900 o         1 MOL     -0.745969
    168 H71         8.7700   -1.0130    1.7150 hn        1 MOL      0.255986
    169 H72         6.0890   -0.3430    2.6350 h1        1 MOL     -0.003827
    170 H73         7.8950    1.7830    1.4320 hc        1 MOL     -0.019027
    171 H74         6.2080    1.8340    1.5850 hc        1 MOL     -0.019027
    172 H75         5.9990    0.1520   -0.0770 hc        1 MOL      0.120382
    173 H76         7.7700    0.3410   -0.4450 hc        1 MOL      0.120382
    174 N15         7.1520    1.2940    4.3940 n         1 MOL     -0.296647
    175 C58         7.5110    1.7610    5.7240 c3        1 MOL      0.053503
    176 H77         6.6200    1.7910    6.3520 h1        1 MOL      0.026184
    177 H78         8.2420    1.0820    6.1630 h1        1 MOL      0.026184
    178 H79         7.9400    2.7610    5.6550 h1        1 MOL      0.026184
    179 H80         6.5280    1.8480    3.8290 hn        1 MOL      0.217158
    180 Ca1         5.8170    4.5610   -2.3740 Ca        1 MOL      1.787553
    181 O27         5.3520    6.9030   -3.5370 oh        1 MOL     -0.901867
    182 H81         4.3990    6.9590   -3.6460 ho        1 MOL      0.435429
    183 H82         5.6850    7.6820   -3.9730 ho        1 MOL      0.435429
    184 O28         5.4930    2.4710   -4.0550 oh        1 MOL     -0.901867
    185 H83         4.8150    2.2460   -4.6860 ho        1 MOL      0.435429
    186 H84         5.9020    1.6280   -3.8460 ho        1 MOL      0.435429
    187 O29         7.9310    4.4170   -4.2440 oh        1 MOL     -0.901867
    188 H85         7.6580    3.7690   -4.9020 ho        1 MOL      0.435429
    189 H86         8.8500    4.5880   -4.4520 ho        1 MOL      0.435429
    190 O30         8.0640    6.0980   -1.8810 oh        1 MOL     -0.901867
    191 H87         8.6580    5.5810   -1.3340 ho        1 MOL      0.435429
    192 H88         8.4700    6.9680   -1.9170 ho        1 MOL      0.435429
@<TRIPOS>BOND
     1    1    2 1   
     2    1    4 1   
     3    1    5 1   
     4    1    6 1   
     5    2    3 2   
     6    2    7 1   
     7    7    8 1   
     8    7   15 1   
     9    8    9 1   
    10    8   11 1   
    11    8   16 1   
    12    9   10 2   
    13    9   19 1   
    14   11   12 1   
    15   11   17 1   
    16   11   18 1   
    17   12   13 1   
    18   12   14 1   
    19   19   20 1   
    20   19   27 1   
    21   20   21 1   
    22   20   23 1   
    23   20   28 1   
    24   21   22 2   
    25   21   38 1   
    26   23   24 1   
    27   23   25 1   
    28   23   29 1   
    29   24   26 1   
    30   24   30 1   
    31   24   31 1   
    32   25   32 1   
    33   25   33 1   
    34   25   34 1   
    35   26   35 1   
    36   26   36 1   
    37   26   37 1   
    38   38   39 1   
    39   38   46 1   
    40   39   40 1   
    41   39   42 1   
    42   39   47 1   
    43   40   41 2   
    44   40   50 1   
    45   42   43 1   
    46   42   48 1   
    47   42   49 1   
    48   43   44 1   
    49   43   45 1   
    50   50   51 1   
    51   50   54 1   
    52   51   52 1   
    53   51   55 1   
    54   51   56 1   
    55   52   53 2   
    56   52   57 1   
    57   57   58 1   
    58   57   65 1   
    59   58   59 1   
    60   58   61 1   
    61   58   66 1   
    62   59   60 2   
    63   59   69 1   
    64   61   62 1   
    65   61   67 1   
    66   61   68 1   
    67   62   63 1   
    68   62   64 1   
    69   69   70 1   
    70   69   73 1   
    71   70   71 1   
    72   70   74 1   
    73   70   75 1   
    74   71   72 2   
    75   71   76 1   
    76   76   77 1   
    77   76   85 1   
    78   77   78 1   
    79   77   80 1   
    80   77   86 1   
    81   78   79 2   
    82   78   93 1   
    83   80   81 1   
    84   80   87 1   
    85   80   88 1   
    86   81   82 1   
    87   81   89 1   
    88   81   90 1   
    89   82   83 1   
    90   82   84 2   
    91   83   91 1   
    92   83   92 1   
    93   93   94 1   
    94   93  100 1   
    95   94   95 1   
    96   94   97 1   
    97   94  101 1   
    98   95   96 2   
    99   95  109 1   
   100   97   98 1   
   101   97   99 1   
   102   97  102 1   
   103   98  103 1   
   104   98  104 1   
   105   98  105 1   
   106   99  106 1   
   107   99  107 1   
   108   99  108 1   
   109  109  110 1   
   110  109  117 1   
   111  110  111 1   
   112  110  113 1   
   113  110  118 1   
   114  111  112 2   
   115  111  123 1   
   116  113  114 1   
   117  113  119 1   
   118  113  120 1   
   119  114  115 1   
   120  114  116 2   
   121  115  121 1   
   122  115  122 1   
   123  123  124 1   
   124  123  135 1   
   125  124  125 1   
   126  124  127 1   
   127  124  136 1   
   128  125  126 2   
   129  125  144 1   
   130  127  128 1   
   131  127  137 1   
   132  127  138 1   
   133  128  129 ar  
   134  128  130 ar  
   135  129  131 ar  
   136  129  139 1   
   137  130  132 ar  
   138  130  140 1   
   139  131  133 ar  
   140  131  141 1   
   141  132  133 ar  
   142  132  142 1   
   143  133  134 1   
   144  134  143 1   
   145  144  145 1   
   146  144  153 1   
   147  145  146 1   
   148  145  148 1   
   149  145  154 1   
   150  146  147 2   
   151  146  159 1   
   152  148  149 1   
   153  148  155 1   
   154  148  156 1   
   155  149  150 1   
   156  149  157 1   
   157  149  158 1   
   158  150  151 1   
   159  150  152 1   
   160  159  160 1   
   161  159  168 1   
   162  160  161 1   
   163  160  163 1   
   164  160  169 1   
   165  161  162 2   
   166  161  174 1   
   167  163  164 1   
   168  163  170 1   
   169  163  171 1   
   170  164  165 1   
   171  164  172 1   
   172  164  173 1   
   173  165  166 1   
   174  165  167 1   
   175  174  175 1   
   176  174  179 1   
   177  175  176 1   
   178  175  177 1   
   179  175  178 1   
   180  181  182 1   
   181  181  183 1   
   182  184  185 1   
   183  184  186 1   
   184  187  188 1   
   185  187  189 1   
   186  190  191 1   
   187  190  192 1   
@<TRIPOS>SUBSTRUCTURE
     1 MOL         1 TEMP              0 ****  ****    0 ROOT
