@<TRIPOS>MOLECULE
MOL
  186   183     1     0     0
SMALL
resp


@<TRIPOS>ATOM
      1 C1          4.4600    3.7470   -4.0610 c3        1 MOL     -0.378841
      2 C2          5.1010    3.0530   -2.8490 c         1 MOL      0.824589
      3 O1          4.4090    2.8280   -1.8580 o         1 MOL     -0.689054
      4 H1          5.1140    3.6430   -4.9270 hc        1 MOL      0.092800
      5 H2          3.4960    3.2850   -4.2780 hc        1 MOL      0.092800
      6 H3          4.3150    4.8040   -3.8410 hc        1 MOL      0.092800
      7 N1          6.3400    2.5080   -3.0450 n         1 MOL     -0.698393
      8 C3          7.0880    1.4850   -2.3670 c3        1 MOL      0.156201
      9 C4          6.0290    0.4100   -1.9550 c         1 MOL      0.421610
     10 O2          5.5150    0.5010   -0.8280 o         1 MOL     -0.530754
     11 C5          7.9710    2.0690   -1.1940 c3        1 MOL     -0.135064
     12 C6          7.3500    3.3370   -0.5090 c         1 MOL      0.730102
     13 O3          6.3970    3.1110    0.2230 o         1 MOL     -0.728445
     14 O4          7.7900    4.4870   -0.6660 o         1 MOL     -0.728445
     15 H4          6.8890    2.9220   -3.7740 hn        1 MOL      0.344613
     16 H5          7.8080    1.0430   -3.0660 h1        1 MOL      0.027823
     17 H6          8.9800    2.3000   -1.5270 hc        1 MOL      0.024257
     18 H7          8.1080    1.2090   -0.5340 hc        1 MOL      0.024257
     19 N2          5.6480   -0.4020   -2.8790 n         1 MOL     -0.426145
     20 C7          4.8650   -1.6180   -2.7980 c3        1 MOL      0.250235
     21 C8          5.4820   -2.6700   -1.9310 c         1 MOL      0.396732
     22 O5          5.9960   -3.6890   -2.4280 o         1 MOL     -0.545451
     23 C9          3.3820   -1.4440   -2.5150 c3        1 MOL      0.274131
     24 C10         2.5540   -2.6870   -2.5680 c3        1 MOL      0.010758
     25 C11         2.7110   -0.3550   -3.4400 c3        1 MOL     -0.375801
     26 C12         2.5780   -3.4460   -3.8570 c3        1 MOL     -0.181868
     27 H8          6.0190   -0.1970   -3.8020 hn        1 MOL      0.263392
     28 H9          5.0180   -2.0470   -3.7850 h1        1 MOL     -0.020576
     29 H10         3.1990   -1.0130   -1.5300 hc        1 MOL     -0.127436
     30 H11         1.5250   -2.5620   -2.2200 hc        1 MOL      0.025575
     31 H12         2.9410   -3.3890   -1.8230 hc        1 MOL      0.025575
     32 H13         1.6580   -0.2840   -3.1570 hc        1 MOL      0.070401
     33 H14         3.1990    0.6050   -3.2480 hc        1 MOL      0.070401
     34 H15         2.7870   -0.7020   -4.4780 hc        1 MOL      0.070401
     35 H16         2.3190   -2.7030   -4.6250 hc        1 MOL      0.020126
     36 H17         3.6210   -3.7310   -3.9310 hc        1 MOL      0.020126
     37 H18         1.9240   -4.3180   -3.8840 hc        1 MOL      0.020126
     38 N3          5.5300   -2.4780   -0.5370 n         1 MOL     -0.314022
     39 C13         6.6730   -2.9690    0.2130 c3        1 MOL      0.210129
     40 C14         6.4370   -4.3240    0.9170 c         1 MOL      0.537190
     41 O6          7.3210   -5.1630    0.8350 o         1 MOL     -0.552818
     42 C15         7.3270   -1.8910    1.0520 c3        1 MOL     -0.125848
     43 C16         8.7580   -2.2940    1.4540 c         1 MOL      0.721775
     44 O7          9.0460   -2.4110    2.6650 o         1 MOL     -0.745986
     45 O8          9.6120   -2.3310    0.5550 o         1 MOL     -0.745986
     46 H19         4.9780   -1.7260   -0.1520 hn        1 MOL      0.250779
     47 H20         7.4940   -3.2010   -0.4670 h1        1 MOL     -0.007893
     48 H21         6.6890   -1.5600    1.8750 hc        1 MOL      0.038102
     49 H22         7.4560   -1.0250    0.3980 hc        1 MOL      0.038102
     50 N4          5.3220   -4.6780    1.6130 n         1 MOL     -0.585893
     51 C17         4.2130   -3.8500    2.0270 c3        1 MOL      0.157501
     52 C18         4.4880   -2.8280    3.1700 c         1 MOL      0.548535
     53 O9          5.6100   -2.8850    3.7150 o         1 MOL     -0.498530
     54 H23         5.3340   -5.6300    1.9550 hn        1 MOL      0.304101
     55 H24         3.3410   -4.3850    2.3940 h1        1 MOL      0.004190
     56 H25         3.8990   -3.2860    1.1430 h1        1 MOL      0.004190
     57 N5          3.4970   -2.0250    3.6460 n         1 MOL     -0.657509
     58 C19         2.2700   -1.5340    3.0250 c3        1 MOL      0.393978
     59 C20         2.4050   -1.0320    1.5470 c         1 MOL      0.064888
     60 O10         3.5330   -0.6650    1.2070 o         1 MOL     -0.446627
     61 C21         1.8640   -0.2850    3.8980 c3        1 MOL     -0.473009
     62 C22         2.9050    0.8100    3.9400 c         1 MOL      0.865609
     63 O11         2.9280    1.6970    3.0580 o         1 MOL     -0.713047
     64 O12         3.7840    0.6910    4.7950 o         1 MOL     -0.713047
     65 H26         3.8300   -1.3640    4.3360 hn        1 MOL      0.328339
     66 H27         1.5190   -2.3150    3.1510 h1        1 MOL     -0.004180
     67 H28         1.7360   -0.6850    4.9010 hc        1 MOL      0.102332
     68 H29         0.9360    0.1260    3.4920 hc        1 MOL      0.102332
     69 N6          1.4350   -1.0130    0.7070 n         1 MOL     -0.061430
     70 C23         0.0650   -1.3890    0.9650 c3        1 MOL      0.026517
     71 C24        -0.3590   -2.8030    0.6340 c         1 MOL      0.466103
     72 O13         0.4890   -3.6200    0.1760 o         1 MOL     -0.516096
     73 H30         1.5950   -0.4570   -0.1180 hn        1 MOL      0.148841
     74 H31        -0.6070   -0.6770    0.4820 h1        1 MOL      0.035964
     75 H32        -0.2030   -1.2230    2.0110 h1        1 MOL      0.035964
     76 N7         -1.6630   -3.0490    0.7080 n         1 MOL     -0.490360
     77 C25        -2.3170   -4.2450    0.1060 c3        1 MOL      0.293536
     78 C26        -3.1160   -4.0630   -1.1180 c         1 MOL      0.425724
     79 O14        -3.2980   -4.9730   -1.8390 o         1 MOL     -0.548106
     80 C27        -3.1430   -4.9910    1.1180 c3        1 MOL     -0.096928
     81 C28        -4.3290   -4.2330    1.8510 c3        1 MOL     -0.234056
     82 C29        -5.4980   -3.9310    0.9100 c         1 MOL      0.643928
     83 N8         -6.3540   -4.8980    0.6200 n         1 MOL     -0.753050
     84 O15        -5.5870   -2.8500    0.4070 o         1 MOL     -0.540248
     85 H33        -2.2060   -2.2600    1.0170 hn        1 MOL      0.269119
     86 H34        -1.5470   -4.9830   -0.1580 h1        1 MOL      0.057984
     87 H35        -2.3700   -5.2640    1.8420 hc        1 MOL      0.031535
     88 H36        -3.4970   -5.9000    0.6270 hc        1 MOL      0.031535
     89 H37        -3.8960   -3.3330    2.2790 hc        1 MOL      0.079188
     90 H38        -4.8000   -4.8810    2.6040 hc        1 MOL      0.079188
     91 H39        -6.3730   -5.8150    1.0370 hn        1 MOL      0.359388
     92 H40        -7.0750   -4.6010   -0.0280 hn        1 MOL      0.359388
     93 N9         -3.3700   -2.8400   -1.5030 n         1 MOL     -0.263097
     94 C30        -3.6350   -2.4580   -2.9290 c3        1 MOL     -0.049025
     95 C31        -5.0100   -1.8500   -3.2390 c         1 MOL      0.278984
     96 O16        -5.2770   -1.4140   -4.3450 o         1 MOL     -0.517753
     97 C32        -2.5280   -1.5390   -3.5390 c3        1 MOL      0.138932
     98 C33        -1.1710   -2.3430   -3.6150 c3        1 MOL     -0.115256
     99 C34        -2.4470   -0.1920   -2.8670 c3        1 MOL     -0.115256
    100 H41        -3.2360   -2.0660   -0.8740 hn        1 MOL      0.204317
    101 H42        -3.5330   -3.3390   -3.5620 h1        1 MOL      0.124111
    102 H43        -2.8310   -1.3680   -4.5710 hc        1 MOL     -0.000110
    103 H44        -1.2780   -3.1830   -4.2880 hc        1 MOL      0.032036
    104 H45        -0.3960   -1.6680   -3.9890 hc        1 MOL      0.032036
    105 H46        -0.9320   -2.7550   -2.6360 hc        1 MOL      0.032036
    106 H47        -1.6570    0.3750   -3.3590 hc        1 MOL      0.032036
    107 H48        -3.3690    0.3680   -2.9400 hc        1 MOL      0.032036
    108 H49        -2.0220   -0.2620   -1.8700 hc        1 MOL      0.032036
    109 N10        -5.8220   -1.5560   -2.2060 n         1 MOL     -0.066004
    110 C35        -7.1330   -0.9350   -2.3040 c3        1 MOL     -0.085649
    111 C36        -7.1600    0.4070   -1.5070 c         1 MOL      0.468049
    112 O17        -8.1800    1.0840   -1.6360 o         1 MOL     -0.556100
    113 C37        -8.1230   -1.8300   -1.6220 c3        1 MOL     -0.012542
    114 C38        -8.2990   -3.1740   -2.1200 c         1 MOL      0.533688
    115 N11        -8.4170   -3.3120   -3.4270 n         1 MOL     -0.688754
    116 O18        -8.3950   -4.1130   -1.3370 o         1 MOL     -0.569850
    117 H50        -5.5680   -1.9010   -1.2830 hn        1 MOL      0.175421
    118 H51        -7.4770   -0.7090   -3.3190 h1        1 MOL      0.096769
    119 H52        -9.1050   -1.3790   -1.7420 hc        1 MOL      0.030712
    120 H53        -7.9630   -1.8490   -0.5410 hc        1 MOL      0.030712
    121 H54        -8.5210   -2.4950   -4.0180 hn        1 MOL      0.347549
    122 H55        -8.5880   -4.2860   -3.6210 hn        1 MOL      0.347549
    123 N12        -6.1270    0.7800   -0.7760 n         1 MOL     -0.248870
    124 C39        -6.0920    1.9990    0.0920 c3        1 MOL      0.046737
    125 C40        -4.7540    2.6260    0.3320 c         1 MOL      0.567140
    126 O19        -3.7610    1.9290    0.2160 o         1 MOL     -0.453240
    127 C41        -6.9510    1.8800    1.3550 c3        1 MOL      0.037560
    128 C42        -6.7380    0.6940    2.2400 ca        1 MOL     -0.077993
    129 C43        -5.5780    0.7430    3.0150 ca        1 MOL     -0.078390
    130 C44        -7.5000   -0.5040    2.1080 ca        1 MOL     -0.078390
    131 C45        -5.2600   -0.4410    3.7960 ca        1 MOL     -0.250025
    132 C46        -7.0950   -1.6830    2.7170 ca        1 MOL     -0.250025
    133 C47        -6.0230   -1.5750    3.6460 ca        1 MOL      0.303433
    134 O20        -5.7910   -2.6620    4.4420 oh        1 MOL     -0.563525
    135 H56        -5.2930    0.2140   -0.9110 hn        1 MOL      0.140253
    136 H57        -6.5710    2.7720   -0.5060 h1        1 MOL      0.006768
    137 H58        -7.9820    1.7910    1.0200 hc        1 MOL      0.018569
    138 H59        -6.9300    2.8110    1.9280 hc        1 MOL      0.018569
    139 H60        -4.9540    1.6150    3.0760 ha        1 MOL      0.108619
    140 H61        -8.5210   -0.4950    1.7660 ha        1 MOL      0.108619
    141 H62        -4.3870   -0.3960    4.4320 ha        1 MOL      0.151604
    142 H63        -7.7180   -2.5470    2.5250 ha        1 MOL      0.151604
    143 H64        -5.2080   -2.3790    5.1530 ho        1 MOL      0.405764
    144 N13        -4.7390    3.9340    0.7660 n         1 MOL     -0.470855
    145 C48        -3.5770    4.6530    1.3520 c3        1 MOL      0.006908
    146 C49        -2.3000    4.5010    0.5560 c         1 MOL      0.366760
    147 O21        -1.2210    4.6640    1.1360 o         1 MOL     -0.433664
    148 C50        -3.4160    4.2750    2.8240 c3        1 MOL     -0.099324
    149 C51        -4.5170    4.8890    3.6530 c3        1 MOL     -0.216524
    150 C52        -4.1590    4.6210    5.0840 c         1 MOL      0.573057
    151 O22        -4.5700    3.5090    5.6070 o         1 MOL     -0.676008
    152 O23        -3.3410    5.3250    5.7790 o         1 MOL     -0.676008
    153 H65        -5.5580    4.4850    0.5340 hn        1 MOL      0.277687
    154 H66        -3.7080    5.7350    1.2940 h1        1 MOL      0.117605
    155 H67        -2.5130    4.7440    3.2390 hc        1 MOL      0.115378
    156 H68        -3.4870    3.1940    2.9370 hc        1 MOL      0.115378
    157 H69        -5.4770    4.6190    3.2190 hc        1 MOL      0.020180
    158 H70        -4.4950    5.9510    3.4200 hc        1 MOL      0.020180
    159 N14        -2.2700    4.4180   -0.7580 n         1 MOL     -0.340931
    160 C53        -1.1380    4.4650   -1.6800 c3        1 MOL      0.017905
    161 C54        -1.3650    5.4060   -2.9120 c         1 MOL      0.540775
    162 O24        -0.3480    5.9610   -3.3900 o         1 MOL     -0.513031
    163 C55        -0.9120    2.9760   -2.0760 c3        1 MOL     -0.277653
    164 C56        -0.2520    2.0790   -1.0760 c3        1 MOL      0.292488
    165 C57         1.2310    2.3540   -0.7720 c         1 MOL      0.559066
    166 O25         1.9260    1.3400   -0.6810 o         1 MOL     -0.616494
    167 O26         1.6960    3.4040   -0.2650 o         1 MOL     -0.616494
    168 H71        -3.1650    4.3560   -1.2170 hn        1 MOL      0.118783
    169 H72        -0.2920    4.8530   -1.1120 h1        1 MOL      0.116145
    170 H73        -0.2630    2.9130   -2.9480 hc        1 MOL      0.062030
    171 H74        -1.8430    2.5140   -2.3800 hc        1 MOL      0.062030
    172 H75        -0.3460    1.0140   -1.2980 hc        1 MOL     -0.056340
    173 H76        -0.7980    2.1030   -0.1330 hc        1 MOL     -0.056340
    174 N15        -2.6080    5.5940   -3.4310 n         1 MOL     -0.398648
    175 C58        -2.9240    6.2970   -4.6900 c3        1 MOL     -0.190607
    176 H77        -2.1370    6.1050   -5.4200 h1        1 MOL      0.097200
    177 H78        -3.8760    5.9360   -5.0800 h1        1 MOL      0.097200
    178 H79        -2.9910    7.3690   -4.5020 h1        1 MOL      0.097200
    179 H80        -3.4120    5.1620   -3.0040 hn        1 MOL      0.307626
    180 Ca1         4.0610    2.1450    0.5510 Ca        1 MOL      1.784020
    181 O27         3.9930    4.1510    2.0790 oh        1 MOL     -0.917077
    182 H81         3.4440    4.7990    2.5130 ho        1 MOL      0.434554
    183 H82         4.8880    4.4090    2.3020 ho        1 MOL      0.434554
    184 O28         5.6170    1.1680    2.7160 oh        1 MOL     -0.917077
    185 H83         6.4060    0.7650    3.0650 ho        1 MOL      0.434554
    186 H84         4.9780    1.1200    3.4270 ho        1 MOL      0.434554
@<TRIPOS>BOND
     1    1    2 1   
     2    1    4 1   
     3    1    5 1   
     4    1    6 1   
     5    2    3 2   
     6    2    7 1   
     7    7    8 1   
     8    7   15 1   
     9    8    9 1   
    10    8   11 1   
    11    8   16 1   
    12    9   10 2   
    13    9   19 1   
    14   11   12 1   
    15   11   17 1   
    16   11   18 1   
    17   12   13 1   
    18   12   14 1   
    19   19   20 1   
    20   19   27 1   
    21   20   21 1   
    22   20   23 1   
    23   20   28 1   
    24   21   22 2   
    25   21   38 1   
    26   23   24 1   
    27   23   25 1   
    28   23   29 1   
    29   24   26 1   
    30   24   30 1   
    31   24   31 1   
    32   25   32 1   
    33   25   33 1   
    34   25   34 1   
    35   26   35 1   
    36   26   36 1   
    37   26   37 1   
    38   38   39 1   
    39   38   46 1   
    40   39   40 1   
    41   39   42 1   
    42   39   47 1   
    43   40   41 2   
    44   40   50 1   
    45   42   43 1   
    46   42   48 1   
    47   42   49 1   
    48   43   44 1   
    49   43   45 1   
    50   50   51 1   
    51   50   54 1   
    52   51   52 1   
    53   51   55 1   
    54   51   56 1   
    55   52   53 2   
    56   52   57 1   
    57   57   58 1   
    58   57   65 1   
    59   58   59 1   
    60   58   61 1   
    61   58   66 1   
    62   59   60 2   
    63   59   69 1   
    64   61   62 1   
    65   61   67 1   
    66   61   68 1   
    67   62   63 1   
    68   62   64 1   
    69   69   70 1   
    70   69   73 1   
    71   70   71 1   
    72   70   74 1   
    73   70   75 1   
    74   71   72 2   
    75   71   76 1   
    76   76   77 1   
    77   76   85 1   
    78   77   78 1   
    79   77   80 1   
    80   77   86 1   
    81   78   79 2   
    82   78   93 1   
    83   80   81 1   
    84   80   87 1   
    85   80   88 1   
    86   81   82 1   
    87   81   89 1   
    88   81   90 1   
    89   82   83 1   
    90   82   84 2   
    91   83   91 1   
    92   83   92 1   
    93   93   94 1   
    94   93  100 1   
    95   94   95 1   
    96   94   97 1   
    97   94  101 1   
    98   95   96 2   
    99   95  109 1   
   100   97   98 1   
   101   97   99 1   
   102   97  102 1   
   103   98  103 1   
   104   98  104 1   
   105   98  105 1   
   106   99  106 1   
   107   99  107 1   
   108   99  108 1   
   109  109  110 1   
   110  109  117 1   
   111  110  111 1   
   112  110  113 1   
   113  110  118 1   
   114  111  112 2   
   115  111  123 1   
   116  113  114 1   
   117  113  119 1   
   118  113  120 1   
   119  114  115 1   
   120  114  116 2   
   121  115  121 1   
   122  115  122 1   
   123  123  124 1   
   124  123  135 1   
   125  124  125 1   
   126  124  127 1   
   127  124  136 1   
   128  125  126 2   
   129  125  144 1   
   130  127  128 1   
   131  127  137 1   
   132  127  138 1   
   133  128  129 ar  
   134  128  130 ar  
   135  129  131 ar  
   136  129  139 1   
   137  130  132 ar  
   138  130  140 1   
   139  131  133 ar  
   140  131  141 1   
   141  132  133 ar  
   142  132  142 1   
   143  133  134 1   
   144  134  143 1   
   145  144  145 1   
   146  144  153 1   
   147  145  146 1   
   148  145  148 1   
   149  145  154 1   
   150  146  147 2   
   151  146  159 1   
   152  148  149 1   
   153  148  155 1   
   154  148  156 1   
   155  149  150 1   
   156  149  157 1   
   157  149  158 1   
   158  150  151 1   
   159  150  152 1   
   160  159  160 1   
   161  159  168 1   
   162  160  161 1   
   163  160  163 1   
   164  160  169 1   
   165  161  162 2   
   166  161  174 1   
   167  163  164 1   
   168  163  170 1   
   169  163  171 1   
   170  164  165 1   
   171  164  172 1   
   172  164  173 1   
   173  165  166 1   
   174  165  167 1   
   175  174  175 1   
   176  174  179 1   
   177  175  176 1   
   178  175  177 1   
   179  175  178 1   
   180  181  182 1   
   181  181  183 1   
   182  184  185 1   
   183  184  186 1   
@<TRIPOS>SUBSTRUCTURE
     1 MOL         1 TEMP              0 ****  ****    0 ROOT
