@<TRIPOS>MOLECULE
MOL
  192   187     1     0     0
SMALL
resp


@<TRIPOS>ATOM
      1 C1         -8.4840   -0.3120   -3.4880 c3        1 MOL     -0.524382
      2 C2         -7.8100    0.3420   -2.2510 c         1 MOL      0.672319
      3 O1         -6.7380    0.9460   -2.3390 o         1 MOL     -0.586533
      4 H1         -9.0790   -1.1670   -3.1670 hc        1 MOL      0.132418
      5 H2         -9.1300    0.4160   -3.9780 hc        1 MOL      0.132418
      6 H3         -7.7160   -0.6450   -4.1860 hc        1 MOL      0.132418
      7 N1         -8.3650    0.0380   -1.0180 n         1 MOL     -0.346365
      8 C3         -7.9100    0.3520    0.3540 c3        1 MOL     -0.061828
      9 C4         -7.3150   -0.9010    1.0880 c         1 MOL      0.564185
     10 O2         -7.2780   -0.9010    2.3090 o         1 MOL     -0.468728
     11 C5         -8.9590    1.1640    1.1360 c3        1 MOL     -0.248801
     12 C6        -10.3030    0.4470    1.3230 c         1 MOL      0.687150
     13 O3        -10.5210   -0.7040    0.8600 o         1 MOL     -0.663943
     14 O4        -11.0910    1.0730    2.0920 o         1 MOL     -0.663943
     15 H4         -9.1920   -0.5340   -1.0510 hn        1 MOL      0.181283
     16 H5         -7.0440    1.0130    0.2950 h1        1 MOL      0.092098
     17 H6         -9.1510    2.0200    0.4970 hc        1 MOL      0.093652
     18 H7         -8.6080    1.4450    2.1350 hc        1 MOL      0.093652
     19 N2         -6.8720   -1.9230    0.2960 n         1 MOL     -0.416946
     20 C7         -6.3780   -3.2240    0.6530 c3        1 MOL      0.149786
     21 C8         -4.9260   -3.4270    1.1550 c         1 MOL      0.523323
     22 O5         -4.7140   -4.1650    2.1480 o         1 MOL     -0.522235
     23 C9         -6.6590   -4.2850   -0.4880 c3        1 MOL     -0.153232
     24 C10        -8.1260   -4.5600   -0.5370 c3        1 MOL      0.189600
     25 C11        -8.5290   -5.2980   -1.8150 c3        1 MOL     -0.280454
     26 C12        -9.9540   -5.2520   -2.2270 c3        1 MOL      0.065047
     27 N3        -10.2540   -5.6440   -3.6260 n4        1 MOL     -0.223263
     28 H8         -7.0190   -1.7770   -0.6900 hn        1 MOL      0.217797
     29 H9         -6.8910   -3.5580    1.5620 h1        1 MOL      0.058700
     30 H10        -6.0650   -5.1980   -0.3640 hc        1 MOL      0.041432
     31 H11        -6.4570   -3.7760   -1.4350 hc        1 MOL      0.041432
     32 H12        -8.6680   -3.6150   -0.4970 hc        1 MOL      0.006095
     33 H13        -8.4090   -5.1290    0.3480 hc        1 MOL      0.006095
     34 H14        -8.3150   -6.3590   -1.6650 hc        1 MOL      0.085053
     35 H15        -7.9290   -4.9400   -2.6610 hc        1 MOL      0.085053
     36 H16       -10.4020   -4.2870   -2.0040 hx        1 MOL      0.082807
     37 H17       -10.4690   -5.9430   -1.5430 hx        1 MOL      0.082807
     38 H18       -11.2000   -5.8980   -3.8530 hn        1 MOL      0.265109
     39 H19        -9.9140   -4.9360   -4.2730 hn        1 MOL      0.265109
     40 H20        -9.7040   -6.4690   -3.8300 hn        1 MOL      0.265109
     41 N4         -3.8170   -2.8440    0.5560 n         1 MOL     -0.594275
     42 C13        -3.7150   -1.7810   -0.4770 c3        1 MOL      0.179824
     43 C14        -3.8920   -0.4350    0.2450 c         1 MOL      0.306588
     44 O6         -3.8530   -0.3660    1.4880 o         1 MOL     -0.416036
     45 C15        -2.3570   -1.8150   -1.1470 c3        1 MOL     -0.145689
     46 C16        -1.2490   -2.0010   -0.1550 c         1 MOL      0.673660
     47 O7         -0.9550   -0.9940    0.4930 o         1 MOL     -0.663941
     48 O8         -0.5840   -3.0810   -0.1800 o         1 MOL     -0.663941
     49 H21        -2.9730   -3.1570    1.0100 hn        1 MOL      0.369769
     50 H22        -4.4220   -1.9180   -1.2950 h1        1 MOL      0.033864
     51 H23        -2.0840   -0.8840   -1.6560 hc        1 MOL      0.036340
     52 H24        -2.2660   -2.6300   -1.8670 hc        1 MOL      0.036340
     53 N5         -3.9880    0.6620   -0.5460 n         1 MOL     -0.410067
     54 C17        -4.1410    2.0790   -0.0700 c3        1 MOL     -0.310360
     55 C18        -2.8700    2.6750    0.4980 c         1 MOL      0.700417
     56 O9         -1.7830    2.1140    0.4270 o         1 MOL     -0.628744
     57 H25        -3.9130    0.5530   -1.5450 hn        1 MOL      0.308184
     58 H26        -4.7880    1.9900    0.7980 h1        1 MOL      0.172917
     59 H27        -4.6130    2.6920   -0.8420 h1        1 MOL      0.172917
     60 N6         -3.0230    3.8640    1.1330 n         1 MOL     -0.715087
     61 C19        -1.9400    4.5830    1.7790 c3        1 MOL      0.554736
     62 C20        -2.1370    6.1130    1.7670 c         1 MOL      0.282226
     63 O10        -3.2530    6.5650    1.9300 o         1 MOL     -0.498943
     64 C21        -1.8420    4.0820    3.2070 c3        1 MOL     -0.304092
     65 C22        -0.4510    3.6270    3.6700 c         1 MOL      0.631430
     66 O11         0.3600    3.2970    2.8130 o         1 MOL     -0.673448
     67 O12        -0.1370    3.6980    4.8910 o         1 MOL     -0.673448
     68 H28        -3.9830    4.1460    1.2520 hn        1 MOL      0.322328
     69 H29        -1.0390    4.3290    1.2170 h1        1 MOL      0.023916
     70 H30        -2.4680    3.1860    3.2520 hc        1 MOL      0.071612
     71 H31        -2.1460    4.9010    3.8780 hc        1 MOL      0.071612
     72 N7         -1.0690    6.9640    1.7560 n         1 MOL     -0.322502
     73 C23         0.3130    6.6180    1.7460 c3        1 MOL     -0.142107
     74 C24         0.8240    6.1270    0.3590 c         1 MOL      0.606494
     75 O13         0.2460    6.4680   -0.7200 o         1 MOL     -0.559053
     76 H32        -1.3790    7.9340    1.7620 hn        1 MOL      0.292124
     77 H33         0.4880    5.8420    2.4820 h1        1 MOL      0.100984
     78 H34         0.8730    7.5070    2.0280 h1        1 MOL      0.100984
     79 N8          1.9600    5.4470    0.3450 n         1 MOL     -0.558818
     80 C25         2.4420    4.8990   -0.8950 c3        1 MOL      0.049706
     81 C26         1.7530    3.5780   -1.0950 c         1 MOL      0.434324
     82 O14         1.2020    2.9890   -0.1760 o         1 MOL     -0.521371
     83 C27         3.9370    4.6430   -0.7420 c3        1 MOL      0.578010
     84 C28         4.7470    5.9510   -0.5830 c3        1 MOL     -0.240344
     85 O15         4.5540    4.1020   -1.8260 oh        1 MOL     -0.700636
     86 H35         2.1790    4.9930    1.2260 hn        1 MOL      0.275124
     87 H36         2.2700    5.5780   -1.7360 h1        1 MOL      0.087451
     88 H37         4.1810    3.9710    0.0810 h1        1 MOL     -0.053151
     89 H38         4.6510    3.1500   -1.6990 ho        1 MOL      0.400982
     90 H39         5.7930    5.7000   -0.7660 hc        1 MOL      0.053633
     91 H40         4.4270    6.7660   -1.2300 hc        1 MOL      0.053633
     92 H41         4.6630    6.2720    0.4580 hc        1 MOL      0.053633
     93 N9          1.6690    3.1500   -2.3870 n         1 MOL     -0.279038
     94 C29         1.1440    1.9380   -2.9020 c3        1 MOL     -0.338970
     95 C30         1.7780    0.6110   -2.2990 c         1 MOL      0.499535
     96 O16         1.8250    0.4810   -1.0640 o         1 MOL     -0.487738
     97 C31        -0.3580    2.0630   -2.8530 c3        1 MOL      0.541515
     98 C32        -1.0210    3.3480   -3.4150 c3        1 MOL      0.086785
     99 C33        -0.9850    0.8690   -3.5820 c3        1 MOL     -0.316156
    100 C34        -2.5460    3.4960   -3.0000 c3        1 MOL     -0.319679
    101 H42         2.0750    3.7500   -3.1010 hn        1 MOL      0.234225
    102 H43         1.3630    2.0330   -3.9700 h1        1 MOL      0.066267
    103 H44        -0.6280    1.9680   -1.8020 hc        1 MOL     -0.072407
    104 H45        -0.9440    3.2760   -4.5110 hc        1 MOL     -0.047209
    105 H46        -0.3740    4.1800   -3.1260 hc        1 MOL     -0.047209
    106 H47        -0.5930   -0.0750   -3.1810 hc        1 MOL      0.050434
    107 H48        -2.0750    0.8490   -3.4900 hc        1 MOL      0.050434
    108 H49        -0.8330    0.9720   -4.6500 hc        1 MOL      0.050434
    109 H50        -2.3990    3.5630   -1.9200 hc        1 MOL      0.096661
    110 H51        -2.9590    4.3890   -3.4750 hc        1 MOL      0.096661
    111 H52        -3.2310    2.7040   -3.2750 hc        1 MOL      0.096661
    112 N10         2.1490   -0.3090   -3.1350 n         1 MOL     -0.163284
    113 C35         2.6250   -1.5890   -2.6820 c3        1 MOL     -0.560133
    114 C36         4.1450   -1.7670   -2.8710 c         1 MOL      0.522254
    115 O17         4.6550   -2.8580   -2.7980 o         1 MOL     -0.525204
    116 C37         1.8240   -2.7030   -3.2560 c3        1 MOL      0.567833
    117 C38         1.9790   -2.8260   -4.7820 c3        1 MOL     -0.388168
    118 O18         0.4390   -2.6390   -2.8840 oh        1 MOL     -0.635336
    119 H53         1.9650   -0.2450   -4.1250 hn        1 MOL      0.216418
    120 H54         2.4590   -1.7190   -1.6120 h1        1 MOL      0.314472
    121 H55         2.1710   -3.6310   -2.8140 h1        1 MOL     -0.013643
    122 H56         0.2830   -3.0360   -2.0270 ho        1 MOL      0.367846
    123 H57         1.5030   -3.7410   -5.1160 hc        1 MOL      0.096926
    124 H58         1.4700   -1.9540   -5.1830 hc        1 MOL      0.096926
    125 H59         3.0440   -2.8640   -5.0280 hc        1 MOL      0.096926
    126 N11         4.8650   -0.6900   -3.1730 n         1 MOL     -0.009782
    127 C39         6.3530   -0.7720   -3.2270 c3        1 MOL     -0.480861
    128 C40         6.7840   -0.7210   -1.7220 c         1 MOL      0.602766
    129 O19         6.9990    0.3350   -1.0480 o         1 MOL     -0.482290
    130 C41         7.0660    0.4010   -4.0360 c3        1 MOL      0.422898
    131 C42         6.7100    0.3240   -5.5720 c3        1 MOL     -0.172134
    132 O20         6.5130    1.6160   -3.6950 oh        1 MOL     -0.609159
    133 H60         4.4650    0.2280   -3.2910 hn        1 MOL      0.139038
    134 H61         6.6230   -1.7020   -3.7260 h1        1 MOL      0.156470
    135 H62         8.1570    0.3010   -4.0290 h1        1 MOL      0.055464
    136 H63         5.6270    1.6100   -4.0740 ho        1 MOL      0.400455
    137 H64         5.6450    0.1340   -5.6730 hc        1 MOL      0.032127
    138 H65         6.9710    1.2680   -6.0560 hc        1 MOL      0.032127
    139 H66         7.4100   -0.4060   -5.9820 hc        1 MOL      0.032127
    140 N12         6.7600   -1.9640   -1.1440 n         1 MOL     -0.545027
    141 C43         6.7660   -2.3200    0.2870 c3        1 MOL      0.098786
    142 C44         5.5500   -1.7750    0.9990 c         1 MOL      0.622228
    143 O21         5.1550   -0.6010    0.8130 o         1 MOL     -0.534411
    144 C45         8.0970   -2.0750    0.9640 c3        1 MOL     -0.262293
    145 C46         9.2890   -2.7070    0.2730 c3        1 MOL      0.148683
    146 C47        10.5690   -2.3770    1.0320 c3        1 MOL     -0.063685
    147 C48        11.7070   -3.2050    0.4250 c3        1 MOL      0.175852
    148 N13        13.0200   -2.6160    0.7230 n4        1 MOL     -0.265490
    149 H67         6.4600   -2.7020   -1.7630 hn        1 MOL      0.288074
    150 H68         6.6900   -3.4130    0.2720 h1        1 MOL      0.050819
    151 H69         7.9460   -2.4430    1.9850 hc        1 MOL      0.086809
    152 H70         8.2460   -1.0030    1.1080 hc        1 MOL      0.086809
    153 H71         9.3670   -2.3150   -0.7300 hc        1 MOL     -0.006412
    154 H72         9.1810   -3.7970    0.2730 hc        1 MOL     -0.006412
    155 H73        10.4470   -2.7950    2.0400 hc        1 MOL      0.038895
    156 H74        10.7800   -1.3130    0.9690 hc        1 MOL      0.038895
    157 H75        11.5920   -3.1220   -0.6520 hx        1 MOL      0.025767
    158 H76        11.6290   -4.2700    0.5940 hx        1 MOL      0.025767
    159 H77        13.1790   -2.4030    1.7000 hn        1 MOL      0.233370
    160 H78        13.7340   -3.2680    0.4390 hn        1 MOL      0.233370
    161 H79        13.2150   -1.7680    0.2020 hn        1 MOL      0.233370
    162 N14         4.9110   -2.6510    1.7510 n         1 MOL     -0.557031
    163 C49         3.7940   -2.2760    2.4520 c3        1 MOL      0.298309
    164 C50         2.5890   -2.0710    1.5260 c         1 MOL      0.309657
    165 O22         2.1450   -0.9300    1.3070 o         1 MOL     -0.610517
    166 C51         3.4300   -3.2940    3.5140 c3        1 MOL     -0.099025
    167 C52         4.2890   -3.1500    4.7780 c3        1 MOL     -0.303905
    168 C53         3.9060   -4.2200    5.7960 c         1 MOL      0.749885
    169 O23         4.7160   -5.1310    5.9020 o         1 MOL     -0.652112
    170 O24         2.8740   -4.1930    6.5140 o         1 MOL     -0.652112
    171 H80         5.3120   -3.5590    1.8890 hn        1 MOL      0.302554
    172 H81         4.0160   -1.3700    3.0270 h1        1 MOL      0.011232
    173 H82         3.5050   -4.3350    3.1850 hc        1 MOL      0.073040
    174 H83         2.3770   -3.2660    3.7800 hc        1 MOL      0.073040
    175 H84         3.9610   -2.2500    5.3100 hc        1 MOL      0.056421
    176 H85         5.3600   -3.1140    4.5900 hc        1 MOL      0.056421
    177 N15         1.9850   -3.1140    0.9370 n         1 MOL     -0.228007
    178 C54         2.3310   -4.5360    0.8810 c3        1 MOL     -0.111883
    179 H86         2.1540   -4.9140   -0.1260 h1        1 MOL      0.065263
    180 H87         3.3830   -4.6650    1.1380 h1        1 MOL      0.065263
    181 H88         1.7150   -5.0890    1.5900 h1        1 MOL      0.065263
    182 H89         1.1430   -2.8040    0.4690 hn        1 MOL      0.256856
    183 Ca1         0.4250    1.0040    1.5090 Ca        1 MOL      1.779432
    184 O25        -1.8410    0.3860    3.0150 oh        1 MOL     -0.859691
    185 H90        -2.3750    0.6030    3.7800 ho        1 MOL      0.426996
    186 H91        -2.4750    0.2480    2.3070 ho        1 MOL      0.426996
    187 O26         2.9800    1.9310    2.1310 oh        1 MOL     -0.859691
    188 H92         3.3480    1.4730    2.8870 ho        1 MOL      0.426996
    189 H93         3.7420    2.1320    1.5840 ho        1 MOL      0.426996
    190 O27         0.8630    0.2140    4.0710 oh        1 MOL     -0.859691
    191 H94         0.1350   -0.2570    4.4820 ho        1 MOL      0.426996
    192 H95         1.4070    0.5050    4.8020 ho        1 MOL      0.426996
@<TRIPOS>BOND
     1    1    2 1   
     2    1    4 1   
     3    1    5 1   
     4    1    6 1   
     5    2    3 2   
     6    2    7 1   
     7    7    8 1   
     8    7   15 1   
     9    8    9 1   
    10    8   11 1   
    11    8   16 1   
    12    9   10 2   
    13    9   19 1   
    14   11   12 1   
    15   11   17 1   
    16   11   18 1   
    17   12   13 1   
    18   12   14 1   
    19   19   20 1   
    20   19   28 1   
    21   20   21 1   
    22   20   23 1   
    23   20   29 1   
    24   21   22 2   
    25   21   41 1   
    26   23   24 1   
    27   23   30 1   
    28   23   31 1   
    29   24   25 1   
    30   24   32 1   
    31   24   33 1   
    32   25   26 1   
    33   25   34 1   
    34   25   35 1   
    35   26   27 1   
    36   26   36 1   
    37   26   37 1   
    38   27   38 1   
    39   27   39 1   
    40   27   40 1   
    41   41   42 1   
    42   41   49 1   
    43   42   43 1   
    44   42   45 1   
    45   42   50 1   
    46   43   44 2   
    47   43   53 1   
    48   45   46 1   
    49   45   51 1   
    50   45   52 1   
    51   46   47 1   
    52   46   48 1   
    53   53   54 1   
    54   53   57 1   
    55   54   55 1   
    56   54   58 1   
    57   54   59 1   
    58   55   56 2   
    59   55   60 1   
    60   60   61 1   
    61   60   68 1   
    62   61   62 1   
    63   61   64 1   
    64   61   69 1   
    65   62   63 2   
    66   62   72 1   
    67   64   65 1   
    68   64   70 1   
    69   64   71 1   
    70   65   66 1   
    71   65   67 1   
    72   72   73 1   
    73   72   76 1   
    74   73   74 1   
    75   73   77 1   
    76   73   78 1   
    77   74   75 2   
    78   74   79 1   
    79   79   80 1   
    80   79   86 1   
    81   80   81 1   
    82   80   83 1   
    83   80   87 1   
    84   81   82 2   
    85   81   93 1   
    86   83   84 1   
    87   83   85 1   
    88   83   88 1   
    89   84   90 1   
    90   84   91 1   
    91   84   92 1   
    92   85   89 1   
    93   93   94 1   
    94   93  101 1   
    95   94   95 1   
    96   94   97 1   
    97   94  102 1   
    98   95   96 2   
    99   95  112 1   
   100   97   98 1   
   101   97   99 1   
   102   97  103 1   
   103   98  100 1   
   104   98  104 1   
   105   98  105 1   
   106   99  106 1   
   107   99  107 1   
   108   99  108 1   
   109  100  109 1   
   110  100  110 1   
   111  100  111 1   
   112  112  113 1   
   113  112  119 1   
   114  113  114 1   
   115  113  116 1   
   116  113  120 1   
   117  114  115 2   
   118  114  126 1   
   119  116  117 1   
   120  116  118 1   
   121  116  121 1   
   122  117  123 1   
   123  117  124 1   
   124  117  125 1   
   125  118  122 1   
   126  126  127 1   
   127  126  133 1   
   128  127  128 1   
   129  127  130 1   
   130  127  134 1   
   131  128  129 2   
   132  128  140 1   
   133  130  131 1   
   134  130  132 1   
   135  130  135 1   
   136  131  137 1   
   137  131  138 1   
   138  131  139 1   
   139  132  136 1   
   140  140  141 1   
   141  140  149 1   
   142  141  142 1   
   143  141  144 1   
   144  141  150 1   
   145  142  143 2   
   146  142  162 1   
   147  144  145 1   
   148  144  151 1   
   149  144  152 1   
   150  145  146 1   
   151  145  153 1   
   152  145  154 1   
   153  146  147 1   
   154  146  155 1   
   155  146  156 1   
   156  147  148 1   
   157  147  157 1   
   158  147  158 1   
   159  148  159 1   
   160  148  160 1   
   161  148  161 1   
   162  162  163 1   
   163  162  171 1   
   164  163  164 1   
   165  163  166 1   
   166  163  172 1   
   167  164  165 2   
   168  164  177 1   
   169  166  167 1   
   170  166  173 1   
   171  166  174 1   
   172  167  168 1   
   173  167  175 1   
   174  167  176 1   
   175  168  169 1   
   176  168  170 1   
   177  177  178 1   
   178  177  182 1   
   179  178  179 1   
   180  178  180 1   
   181  178  181 1   
   182  184  185 1   
   183  184  186 1   
   184  187  188 1   
   185  187  189 1   
   186  190  191 1   
   187  190  192 1   
@<TRIPOS>SUBSTRUCTURE
     1 MOL         1 TEMP              0 ****  ****    0 ROOT
