@<TRIPOS>MOLECULE
MOL
  189   185     1     0     0
SMALL
resp


@<TRIPOS>ATOM
      1 C1          8.9510    2.1060    1.5190 c3        1 MOL     -0.554716
      2 C2          8.0740    1.2570    0.5930 c         1 MOL      0.854749
      3 O1          6.9390    1.0370    0.8970 o         1 MOL     -0.720463
      4 H1          9.8090    1.5190    1.8450 hc        1 MOL      0.136121
      5 H2          9.2990    2.9890    0.9820 hc        1 MOL      0.136121
      6 H3          8.3700    2.4150    2.3880 hc        1 MOL      0.136121
      7 N1          8.5270    0.9330   -0.5990 n         1 MOL     -0.522386
      8 C3          7.7820    0.2690   -1.6900 c3        1 MOL      0.105425
      9 C4          7.4020   -1.2390   -1.3960 c         1 MOL      0.449744
     10 O2          7.5050   -2.0670   -2.2500 o         1 MOL     -0.470825
     11 C5          8.5220    0.4620   -3.0660 c3        1 MOL     -0.210192
     12 C6         10.0040    0.0090   -3.0520 c         1 MOL      0.712454
     13 O3         10.4080   -0.8470   -3.8850 o         1 MOL     -0.642450
     14 O4         10.7970    0.4230   -2.2280 o         1 MOL     -0.642450
     15 H4          9.5010    1.1070   -0.7750 hn        1 MOL      0.215596
     16 H5          6.7760    0.6710   -1.7520 h1        1 MOL      0.057038
     17 H6          8.5060    1.5440   -3.2270 hc        1 MOL      0.060044
     18 H7          8.0400    0.0860   -3.9660 hc        1 MOL      0.060044
     19 N2          6.9520   -1.5830   -0.1960 n         1 MOL     -0.279085
     20 C7          6.6630   -2.8620    0.3840 c3        1 MOL      0.115452
     21 C8          5.1880   -3.3850    0.1840 c         1 MOL      0.516749
     22 O5          4.9020   -4.3980   -0.4050 o         1 MOL     -0.517948
     23 C9          7.1630   -3.0070    1.8420 c3        1 MOL     -0.109503
     24 C10         8.6950   -2.5890    2.0300 c3        1 MOL     -0.010506
     25 C11         9.3840   -2.8610    3.3940 c3        1 MOL      0.141091
     26 C12        10.8560   -2.6350    3.5850 c3        1 MOL      0.083250
     27 N3         11.1670   -2.7180    5.0610 n4        1 MOL     -0.411633
     28 H8          6.7380   -0.7590    0.3500 hn        1 MOL      0.232991
     29 H9          7.2100   -3.5950   -0.1980 h1        1 MOL      0.052089
     30 H10         7.0640   -4.0470    2.1680 hc        1 MOL      0.035356
     31 H11         6.6050   -2.4090    2.5520 hc        1 MOL      0.035356
     32 H12         8.8600   -1.5260    1.8360 hc        1 MOL      0.002566
     33 H13         9.3670   -3.1010    1.3490 hc        1 MOL      0.002566
     34 H14         9.1580   -3.8920    3.6610 hc        1 MOL     -0.029029
     35 H15         8.8570   -2.2300    4.1070 hc        1 MOL     -0.029029
     36 H16        11.1200   -1.6480    3.1820 hx        1 MOL      0.070503
     37 H17        11.4130   -3.3440    2.9710 hx        1 MOL      0.070503
     38 H18        10.7730   -1.9720    5.6260 hn        1 MOL      0.288813
     39 H19        10.9880   -3.6600    5.3780 hn        1 MOL      0.288813
     40 H20        12.1640   -2.6040    5.2100 hn        1 MOL      0.288813
     41 N4          4.1410   -2.6870    0.6330 n         1 MOL     -0.592545
     42 C13         3.9920   -1.2940    1.1510 c3        1 MOL      0.374322
     43 C14         3.9050   -0.1760    0.0240 c         1 MOL      0.355107
     44 O6          3.8170   -0.4790   -1.1740 o         1 MOL     -0.451105
     45 C15         2.8090   -1.2500    2.0790 c3        1 MOL     -0.308829
     46 C16         1.4690   -1.6760    1.4270 c         1 MOL      0.702935
     47 O7          0.7120   -0.8740    0.7780 o         1 MOL     -0.647246
     48 O8          1.1790   -2.8780    1.4990 o         1 MOL     -0.647246
     49 H21         3.2410   -3.0580    0.3890 hn        1 MOL      0.370229
     50 H22         4.8870   -1.0980    1.7460 h1        1 MOL     -0.007191
     51 H23         2.6870   -0.2450    2.4810 hc        1 MOL      0.036246
     52 H24         3.0460   -1.9860    2.8440 hc        1 MOL      0.036246
     53 N5          3.9570    1.0950    0.5050 n         1 MOL     -0.331652
     54 C17         3.7690    2.2640   -0.3730 c3        1 MOL     -0.115846
     55 C18         2.5120    2.3450   -1.2000 c         1 MOL      0.407462
     56 O9          1.4930    1.7380   -0.8330 o         1 MOL     -0.433348
     57 H25         4.1960    1.2920    1.4700 hn        1 MOL      0.284924
     58 H26         4.6090    2.3980   -1.0580 h1        1 MOL      0.105940
     59 H27         3.7240    3.2030    0.1690 h1        1 MOL      0.105940
     60 N6          2.4940    3.0830   -2.3160 n         1 MOL     -0.371902
     61 C19         1.3260    3.3610   -3.1310 c3        1 MOL      0.067095
     62 C20         1.3380    4.8120   -3.7750 c         1 MOL      0.478170
     63 O10         2.3810    5.2430   -4.2000 o         1 MOL     -0.535627
     64 C21         1.0830    2.2430   -4.1540 c3        1 MOL      0.117845
     65 C22        -0.3080    1.6540   -4.2070 c         1 MOL      0.516122
     66 O11        -0.9650    1.5510   -3.1680 o         1 MOL     -0.650022
     67 O12        -0.7920    1.4010   -5.3350 o         1 MOL     -0.650022
     68 H28         3.3520    3.5440   -2.5810 hn        1 MOL      0.260853
     69 H29         0.4720    3.3460   -2.4580 h1        1 MOL      0.052987
     70 H30         1.8890    1.5240   -4.0850 hc        1 MOL     -0.014967
     71 H31         1.1530    2.6070   -5.1800 hc        1 MOL     -0.014967
     72 N7          0.2230    5.5020   -4.0420 n         1 MOL     -0.438439
     73 C23        -1.0870    5.0950   -3.4640 c3        1 MOL      0.018861
     74 C24        -1.2230    5.4440   -1.9600 c         1 MOL      0.450283
     75 O13        -0.2130    5.9410   -1.3780 o         1 MOL     -0.509288
     76 H32         0.3770    6.3880   -4.4930 hn        1 MOL      0.316138
     77 H33        -1.2760    4.0270   -3.5490 h1        1 MOL      0.072841
     78 H34        -1.8290    5.5860   -4.0980 h1        1 MOL      0.072841
     79 N8         -2.2310    4.9000   -1.3090 n         1 MOL     -0.390725
     80 C25        -2.3860    4.9770    0.1110 c3        1 MOL     -0.074238
     81 C26        -1.7170    3.7660    0.7470 c         1 MOL      0.562074
     82 O14        -1.2740    2.7960    0.0680 o         1 MOL     -0.507277
     83 C27        -3.9800    5.0640    0.3710 c3        1 MOL      0.368983
     84 C28        -4.7700    3.7280    0.1480 c3        1 MOL     -0.329393
     85 O15        -4.6360    6.0820   -0.3840 oh        1 MOL     -0.605406
     86 H35        -2.8110    4.2660   -1.8380 hn        1 MOL      0.243627
     87 H36        -1.9160    5.9300    0.3590 h1        1 MOL      0.102336
     88 H37        -4.0780    5.3390    1.4220 h1        1 MOL     -0.041451
     89 H38        -4.6320    6.8680    0.1610 ho        1 MOL      0.397459
     90 H39        -5.7710    3.7730    0.5810 hc        1 MOL      0.106957
     91 H40        -5.0700    3.5810   -0.8890 hc        1 MOL      0.106957
     92 H41        -4.1720    2.8750    0.4320 hc        1 MOL      0.106957
     93 N9         -1.7140    3.6990    2.1120 n         1 MOL     -0.577847
     94 C29        -1.1470    2.6410    2.9020 c3        1 MOL      0.036668
     95 C30        -1.7460    1.2200    2.6580 c         1 MOL      0.740844
     96 O16        -1.7220    0.5390    1.6360 o         1 MOL     -0.560882
     97 C31         0.4550    2.5310    2.7820 c3        1 MOL      0.424206
     98 C32         1.1360    3.9040    2.8900 c3        1 MOL     -0.029621
     99 C33         0.9790    1.4880    3.7770 c3        1 MOL     -0.271628
    100 C34         0.8760    4.7640    4.0970 c3        1 MOL     -0.395114
    101 H42        -2.1620    4.4520    2.6180 hn        1 MOL      0.308139
    102 H43        -1.1920    2.9400    3.9490 h1        1 MOL      0.030880
    103 H44         0.6180    2.1380    1.7790 hc        1 MOL     -0.259018
    104 H45         0.9300    4.5060    2.0110 hc        1 MOL      0.059009
    105 H46         2.2210    3.8000    2.7820 hc        1 MOL      0.059009
    106 H47         0.6800    0.4980    3.4350 hc        1 MOL      0.054044
    107 H48         2.0570    1.4690    3.5900 hc        1 MOL      0.054044
    108 H49         0.7310    1.7740    4.8040 hc        1 MOL      0.054044
    109 H50         1.7140    5.4480    4.2460 hc        1 MOL      0.097331
    110 H51        -0.0090    5.3730    3.9090 hc        1 MOL      0.097331
    111 H52         0.7400    4.1320    4.9730 hc        1 MOL      0.097331
    112 N10        -2.3890    0.6870    3.7520 n         1 MOL     -0.720290
    113 C35        -2.9080   -0.7000    3.8750 c3        1 MOL      0.005627
    114 C36        -4.2590   -0.9200    3.2330 c         1 MOL      0.419024
    115 O17        -4.6310   -2.0980    3.0290 o         1 MOL     -0.541462
    116 C37        -2.8640   -1.1410    5.3730 c3        1 MOL      0.410671
    117 C38        -3.9660   -0.5970    6.2620 c3        1 MOL     -0.241016
    118 O18        -1.6130   -0.6690    5.8660 oh        1 MOL     -0.603618
    119 H53        -2.2860    1.1980    4.6220 hn        1 MOL      0.331559
    120 H54        -2.2680   -1.3460    3.2880 h1        1 MOL      0.088676
    121 H55        -2.9680   -2.2230    5.4260 h1        1 MOL      0.000872
    122 H56        -1.0110   -1.3940    5.7000 ho        1 MOL      0.390078
    123 H57        -4.9550   -0.9320    5.9410 hc        1 MOL      0.065921
    124 H58        -3.8100   -0.8480    7.3130 hc        1 MOL      0.065921
    125 H59        -4.0420    0.4900    6.2790 hc        1 MOL      0.065921
    126 N11        -5.0820    0.1370    2.9220 n         1 MOL     -0.067475
    127 C39        -6.4360   -0.1600    2.4500 c3        1 MOL     -0.461686
    128 C40        -6.4190   -0.6200    1.0130 c         1 MOL      0.774381
    129 O19        -6.4310    0.2020    0.1060 o         1 MOL     -0.575206
    130 C41        -7.3690    1.0290    2.6120 c3        1 MOL      0.542232
    131 C42        -8.8510    0.6150    2.7460 c3        1 MOL     -0.492108
    132 O20        -6.9260    1.7210    3.8190 oh        1 MOL     -0.660577
    133 H60        -4.8250    1.0880    3.1340 hn        1 MOL      0.183244
    134 H61        -6.7860   -0.9760    3.0900 h1        1 MOL      0.116378
    135 H62        -7.2730    1.7590    1.7990 h1        1 MOL      0.019439
    136 H63        -6.9540    1.1300    4.5740 ho        1 MOL      0.386922
    137 H64        -9.3840    1.5570    2.8780 hc        1 MOL      0.119634
    138 H65        -9.1720    0.0650    1.8670 hc        1 MOL      0.119634
    139 H66        -9.0070   -0.0100    3.6280 hc        1 MOL      0.119634
    140 N12        -6.5990   -1.9240    0.9310 n         1 MOL     -0.514036
    141 C43        -6.5690   -2.6980   -0.3260 c3        1 MOL     -0.011122
    142 C44        -5.2180   -2.4950   -1.0350 c         1 MOL      0.601906
    143 O21        -4.7810   -1.4000   -1.4190 o         1 MOL     -0.550855
    144 C45        -7.7780   -2.4680   -1.1910 c3        1 MOL     -0.109169
    145 C46        -9.1360   -2.2380   -0.5030 c3        1 MOL      0.132409
    146 C47       -10.3620   -2.3510   -1.4910 c3        1 MOL     -0.339704
    147 C48       -10.3320   -1.3400   -2.6580 c3        1 MOL     -0.029074
    148 N13       -10.3540    0.0560   -2.1330 n4        1 MOL     -0.238018
    149 H67        -6.8330   -2.4480    1.7600 hn        1 MOL      0.319284
    150 H68        -6.6080   -3.7430   -0.0420 h1        1 MOL      0.090445
    151 H69        -7.7610   -3.3070   -1.8860 hc        1 MOL      0.054817
    152 H70        -7.5470   -1.5010   -1.6480 hc        1 MOL      0.054817
    153 H71        -9.1050   -1.2750    0.0000 hc        1 MOL     -0.012974
    154 H72        -9.3330   -3.0490    0.2020 hc        1 MOL     -0.012974
    155 H73       -11.2400   -2.2800   -0.8540 hc        1 MOL      0.136887
    156 H74       -10.3530   -3.3790   -1.8610 hc        1 MOL      0.136887
    157 H75       -11.1770   -1.5300   -3.3110 hx        1 MOL      0.122341
    158 H76        -9.4460   -1.5060   -3.2730 hx        1 MOL      0.122341
    159 H77        -9.4490    0.3180   -1.7710 hn        1 MOL      0.248484
    160 H78       -10.6960    0.6490   -2.8750 hn        1 MOL      0.248484
    161 H79       -10.9540    0.0980   -1.3320 hn        1 MOL      0.248484
    162 N14        -4.4620   -3.5820   -1.1710 n         1 MOL     -0.467366
    163 C49        -3.1940   -3.5690   -1.8420 c3        1 MOL      0.092327
    164 C50        -2.0520   -3.0010   -0.9630 c         1 MOL      0.631064
    165 O22        -1.3970   -2.1240   -1.4120 o         1 MOL     -0.636732
    166 C51        -2.8640   -4.8780   -2.4740 c3        1 MOL     -0.162296
    167 C52        -3.6310   -5.1620   -3.7550 c3        1 MOL     -0.196751
    168 C53        -3.4580   -6.5680   -4.2430 c         1 MOL      0.688913
    169 O23        -4.0770   -7.4090   -3.5640 o         1 MOL     -0.647767
    170 O24        -2.7880   -6.8770   -5.2500 o         1 MOL     -0.647767
    171 H80        -4.8480   -4.4450   -0.8310 hn        1 MOL      0.296219
    172 H81        -3.3530   -2.8790   -2.6710 h1        1 MOL      0.069702
    173 H82        -3.0260   -5.7290   -1.8200 hc        1 MOL      0.098940
    174 H83        -1.8180   -4.8740   -2.7790 hc        1 MOL      0.098940
    175 H84        -3.3140   -4.5380   -4.5940 hc        1 MOL      0.046300
    176 H85        -4.6900   -4.9440   -3.6150 hc        1 MOL      0.046300
    177 N15        -1.6690   -3.4150    0.3090 n         1 MOL     -0.428236
    178 C54        -1.8320   -4.7470    0.8760 c3        1 MOL     -0.054444
    179 H86        -1.7300   -4.6950    1.9590 h1        1 MOL      0.049524
    180 H87        -2.8210   -5.1310    0.6220 h1        1 MOL      0.049524
    181 H88        -1.0680   -5.4110    0.4710 h1        1 MOL      0.049524
    182 H89        -0.9300   -2.8420    0.6980 hn        1 MOL      0.324590
    183 Ca1        -0.5720    0.3730   -0.8970 Ca        1 MOL      1.732853
    184 O25        -3.0750    0.6430   -1.1430 oh        1 MOL     -0.994002
    185 H90        -3.7150   -0.0420   -0.9840 ho        1 MOL      0.461433
    186 H91        -3.5500    1.3050   -1.6460 ho        1 MOL      0.461433
    187 O26         1.3780   -0.8860   -2.2050 oh        1 MOL     -0.994002
    188 H92         2.3360   -0.8380   -2.2740 ho        1 MOL      0.461433
    189 H93         1.1230   -1.5010   -2.8940 ho        1 MOL      0.461433
@<TRIPOS>BOND
     1    1    2 1   
     2    1    4 1   
     3    1    5 1   
     4    1    6 1   
     5    2    3 2   
     6    2    7 1   
     7    7    8 1   
     8    7   15 1   
     9    8    9 1   
    10    8   11 1   
    11    8   16 1   
    12    9   10 2   
    13    9   19 1   
    14   11   12 1   
    15   11   17 1   
    16   11   18 1   
    17   12   13 1   
    18   12   14 1   
    19   19   20 1   
    20   19   28 1   
    21   20   21 1   
    22   20   23 1   
    23   20   29 1   
    24   21   22 2   
    25   21   41 1   
    26   23   24 1   
    27   23   30 1   
    28   23   31 1   
    29   24   25 1   
    30   24   32 1   
    31   24   33 1   
    32   25   26 1   
    33   25   34 1   
    34   25   35 1   
    35   26   27 1   
    36   26   36 1   
    37   26   37 1   
    38   27   38 1   
    39   27   39 1   
    40   27   40 1   
    41   41   42 1   
    42   41   49 1   
    43   42   43 1   
    44   42   45 1   
    45   42   50 1   
    46   43   44 2   
    47   43   53 1   
    48   45   46 1   
    49   45   51 1   
    50   45   52 1   
    51   46   47 1   
    52   46   48 1   
    53   53   54 1   
    54   53   57 1   
    55   54   55 1   
    56   54   58 1   
    57   54   59 1   
    58   55   56 2   
    59   55   60 1   
    60   60   61 1   
    61   60   68 1   
    62   61   62 1   
    63   61   64 1   
    64   61   69 1   
    65   62   63 2   
    66   62   72 1   
    67   64   65 1   
    68   64   70 1   
    69   64   71 1   
    70   65   66 1   
    71   65   67 1   
    72   72   73 1   
    73   72   76 1   
    74   73   74 1   
    75   73   77 1   
    76   73   78 1   
    77   74   75 2   
    78   74   79 1   
    79   79   80 1   
    80   79   86 1   
    81   80   81 1   
    82   80   83 1   
    83   80   87 1   
    84   81   82 2   
    85   81   93 1   
    86   83   84 1   
    87   83   85 1   
    88   83   88 1   
    89   84   90 1   
    90   84   91 1   
    91   84   92 1   
    92   85   89 1   
    93   93   94 1   
    94   93  101 1   
    95   94   95 1   
    96   94   97 1   
    97   94  102 1   
    98   95   96 2   
    99   95  112 1   
   100   97   98 1   
   101   97   99 1   
   102   97  103 1   
   103   98  100 1   
   104   98  104 1   
   105   98  105 1   
   106   99  106 1   
   107   99  107 1   
   108   99  108 1   
   109  100  109 1   
   110  100  110 1   
   111  100  111 1   
   112  112  113 1   
   113  112  119 1   
   114  113  114 1   
   115  113  116 1   
   116  113  120 1   
   117  114  115 2   
   118  114  126 1   
   119  116  117 1   
   120  116  118 1   
   121  116  121 1   
   122  117  123 1   
   123  117  124 1   
   124  117  125 1   
   125  118  122 1   
   126  126  127 1   
   127  126  133 1   
   128  127  128 1   
   129  127  130 1   
   130  127  134 1   
   131  128  129 2   
   132  128  140 1   
   133  130  131 1   
   134  130  132 1   
   135  130  135 1   
   136  131  137 1   
   137  131  138 1   
   138  131  139 1   
   139  132  136 1   
   140  140  141 1   
   141  140  149 1   
   142  141  142 1   
   143  141  144 1   
   144  141  150 1   
   145  142  143 2   
   146  142  162 1   
   147  144  145 1   
   148  144  151 1   
   149  144  152 1   
   150  145  146 1   
   151  145  153 1   
   152  145  154 1   
   153  146  147 1   
   154  146  155 1   
   155  146  156 1   
   156  147  148 1   
   157  147  157 1   
   158  147  158 1   
   159  148  159 1   
   160  148  160 1   
   161  148  161 1   
   162  162  163 1   
   163  162  171 1   
   164  163  164 1   
   165  163  166 1   
   166  163  172 1   
   167  164  165 2   
   168  164  177 1   
   169  166  167 1   
   170  166  173 1   
   171  166  174 1   
   172  167  168 1   
   173  167  175 1   
   174  167  176 1   
   175  168  169 1   
   176  168  170 1   
   177  177  178 1   
   178  177  182 1   
   179  178  179 1   
   180  178  180 1   
   181  178  181 1   
   182  184  185 1   
   183  184  186 1   
   184  187  188 1   
   185  187  189 1   
@<TRIPOS>SUBSTRUCTURE
     1 MOL         1 TEMP              0 ****  ****    0 ROOT
