@<TRIPOS>MOLECULE
MOL
  178   175     1     0     0
SMALL
resp


@<TRIPOS>ATOM
      1 C1          1.3430    6.6810   -1.8910 c3        1 MOL     -0.465344
      2 C2          2.7210    6.2990   -1.4120 c         1 MOL      0.736719
      3 O1          3.2200    6.8660   -0.4330 o         1 MOL     -0.586120
      4 H1          0.5990    6.0720   -1.3790 hc        1 MOL      0.114452
      5 H2          1.1610    7.7340   -1.6740 hc        1 MOL      0.114452
      6 H3          1.2720    6.5140   -2.9660 hc        1 MOL      0.114452
      7 N1          3.3820    5.4510   -2.2300 n         1 MOL     -0.660860
      8 C3          4.6860    4.7350   -1.9470 c3        1 MOL      0.221441
      9 C4          4.4520    3.8870   -0.6570 c         1 MOL      0.650859
     10 O2          3.6180    2.9590   -0.5470 o         1 MOL     -0.623381
     11 C5          5.0950    3.8110   -3.1610 c3        1 MOL     -0.340083
     12 C6          6.4000    3.1970   -2.8240 c         1 MOL      0.814960
     13 O3          6.4090    1.9740   -2.6830 o         1 MOL     -0.763860
     14 O4          7.3260    3.9480   -2.5910 o         1 MOL     -0.763860
     15 H4          2.8630    5.1280   -3.0470 hn        1 MOL      0.318128
     16 H5          5.3440    5.5600   -1.6960 h1        1 MOL      0.046162
     17 H6          5.3060    4.4000   -4.0520 hc        1 MOL      0.055557
     18 H7          4.2830    3.1000   -3.3240 hc        1 MOL      0.055557
     19 N2          5.2100    4.2320    0.3640 n         1 MOL     -0.646976
     20 C7          5.2230    3.5440    1.5940 c3        1 MOL      0.607000
     21 C8          3.9160    3.6200    2.3620 c         1 MOL      0.351638
     22 O5          3.1470    4.6040    2.2610 o         1 MOL     -0.536804
     23 C9          6.5320    3.8970    2.2960 c3        1 MOL     -0.530428
     24 H8          5.9720    4.8770    0.1970 hn        1 MOL      0.318272
     25 H9          5.3980    2.5030    1.3120 h1        1 MOL      0.050601
     26 H10         6.6910    3.4850    3.2860 hc        1 MOL      0.123333
     27 H11         7.3310    3.8800    1.5560 hc        1 MOL      0.123333
     28 H12         6.3620    4.9430    2.5390 hc        1 MOL      0.123333
     29 N3          3.6320    2.6090    3.1880 n         1 MOL     -0.394414
     30 C10         4.3750    1.3760    3.4960 c3        1 MOL      0.021416
     31 C11         4.4540    0.3230    2.3670 c         1 MOL      0.419738
     32 O6          3.4930    0.3210    1.5510 o         1 MOL     -0.464749
     33 C12         3.8000    0.7340    4.7830 c3        1 MOL     -0.009930
     34 C13         2.2920    0.4140    4.8140 c         1 MOL      0.575739
     35 O7          1.8090    0.1060    5.9040 o         1 MOL     -0.645214
     36 O8          1.6900    0.5820    3.7590 o         1 MOL     -0.645214
     37 H13         2.8290    2.9040    3.7310 hn        1 MOL      0.315804
     38 H14         5.4340    1.5840    3.6310 h1        1 MOL     -0.028673
     39 H15         4.0610    1.3420    5.6590 hc        1 MOL      0.000632
     40 H16         4.3340   -0.1950    4.9660 hc        1 MOL      0.000632
     41 N4          5.4560   -0.4490    2.2100 n         1 MOL     -0.445478
     42 C14         5.8180   -1.2640    1.0360 c3        1 MOL      0.091337
     43 C15         6.7750   -0.5800    0.0640 c         1 MOL      0.665155
     44 O9          7.2490    0.4950    0.3370 o         1 MOL     -0.537111
     45 H17         6.1820   -0.4280    2.9200 hn        1 MOL      0.308426
     46 H18         4.9550   -1.5600    0.4560 h1        1 MOL      0.006311
     47 H19         6.3180   -2.1940    1.2750 h1        1 MOL      0.006311
     48 N5          7.1360   -1.2370   -1.0380 n         1 MOL     -0.569039
     49 C16         6.9300   -2.6730   -1.3790 c3        1 MOL      0.043067
     50 C17         5.7100   -3.0920   -2.2220 c         1 MOL      0.596250
     51 O10         5.7570   -4.1970   -2.6800 o         1 MOL     -0.551360
     52 C18         8.2870   -3.0660   -2.0110 c3        1 MOL     -0.165171
     53 C19         9.4510   -2.9060   -1.0780 c         1 MOL      0.704537
     54 N6         10.6320   -2.7470   -1.5960 n         1 MOL     -0.797639
     55 O11         9.3290   -2.9050    0.1270 o         1 MOL     -0.554387
     56 H20         7.5750   -0.6440   -1.7290 hn        1 MOL      0.327026
     57 H21         6.8390   -3.2060   -0.4350 h1        1 MOL      0.056628
     58 H22         8.4980   -2.4440   -2.8780 hc        1 MOL      0.047092
     59 H23         8.3740   -4.0670   -2.4410 hc        1 MOL      0.047092
     60 H24        10.7120   -2.8440   -2.6060 hn        1 MOL      0.360956
     61 H25        11.4430   -2.5620   -1.0270 hn        1 MOL      0.360956
     62 N7          4.6750   -2.2780   -2.3170 n         1 MOL     -0.261506
     63 C20         3.5490   -2.4080   -3.1700 c3        1 MOL     -0.615584
     64 C21         2.4820   -3.4130   -2.7220 c         1 MOL      0.731578
     65 O12         1.6210   -3.7260   -3.5580 o         1 MOL     -0.565662
     66 H26         4.6700   -1.4600   -1.7090 hn        1 MOL      0.284201
     67 H27         4.0260   -2.6470   -4.1210 h1        1 MOL      0.251339
     68 H28         2.9450   -1.5050   -3.2220 h1        1 MOL      0.251339
     69 N8          2.5410   -4.0820   -1.5450 n         1 MOL     -0.459970
     70 C22         1.2900   -4.6890   -1.0250 c3        1 MOL     -0.081417
     71 C23         0.2270   -3.6860   -0.7020 c         1 MOL      0.474261
     72 O13         0.4660   -2.6000   -0.0390 o         1 MOL     -0.493932
     73 C24         1.6650   -5.6590    0.1390 c3        1 MOL      0.398736
     74 C25         2.5860   -6.7380   -0.3140 c3        1 MOL     -0.352559
     75 O14         2.1710   -5.0550    1.3270 oh        1 MOL     -0.644535
     76 H29         3.3710   -4.0970   -0.9600 hn        1 MOL      0.308486
     77 H30         0.9280   -5.2770   -1.8690 h1        1 MOL      0.085970
     78 H31         0.7500   -6.1910    0.3940 h1        1 MOL      0.003203
     79 H32         2.0590   -5.6460    2.0780 ho        1 MOL      0.421444
     80 H33         2.6190   -7.5660    0.3910 hc        1 MOL      0.090402
     81 H34         2.2800   -7.2060   -1.2570 hc        1 MOL      0.090402
     82 H35         3.5990   -6.3730   -0.5190 hc        1 MOL      0.090402
     83 N9         -1.0430   -3.9980   -1.1290 n         1 MOL     -0.285192
     84 C26        -2.3020   -3.1940   -0.9480 c3        1 MOL     -0.055994
     85 C27        -2.8440   -3.3970    0.4940 c         1 MOL      0.395963
     86 O15        -3.2510   -4.4850    0.8680 o         1 MOL     -0.552676
     87 C28        -3.2820   -3.4270   -2.1230 c3        1 MOL      0.027873
     88 C29        -4.6480   -2.7570   -1.9010 c3        1 MOL      0.162773
     89 C30        -2.7050   -2.7240   -3.4220 c3        1 MOL     -0.230804
     90 C31        -5.5930   -2.8550   -3.0540 c3        1 MOL     -0.060393
     91 H36        -1.1230   -4.9550   -1.4310 hn        1 MOL      0.230594
     92 H37        -2.0570   -2.1310   -0.9580 h1        1 MOL      0.147111
     93 H38        -3.4830   -4.4880   -2.2800 hc        1 MOL      0.031493
     94 H39        -4.4220   -1.7060   -1.7220 hc        1 MOL     -0.058414
     95 H40        -5.1290   -2.9970   -0.9550 hc        1 MOL     -0.058414
     96 H41        -1.6470   -2.9540   -3.5400 hc        1 MOL      0.061745
     97 H42        -3.1850   -2.9450   -4.3730 hc        1 MOL      0.061745
     98 H43        -2.8080   -1.6450   -3.2580 hc        1 MOL      0.061745
     99 H44        -6.5870   -2.6150   -2.6930 hc        1 MOL     -0.009493
    100 H45        -5.2860   -2.1150   -3.8010 hc        1 MOL     -0.009493
    101 H46        -5.6010   -3.8260   -3.5620 hc        1 MOL     -0.009493
    102 N10        -2.9990   -2.2850    1.2970 n         1 MOL     -0.068341
    103 C32        -3.7720   -2.2520    2.5700 c3        1 MOL      0.180392
    104 C33        -5.1380   -1.6120    2.3410 c         1 MOL      0.242009
    105 O16        -5.9690   -1.7750    3.2350 o         1 MOL     -0.539497
    106 C34        -3.0370   -1.5220    3.7120 c3        1 MOL     -0.028506
    107 C35        -1.5930   -1.9970    3.8920 c         1 MOL      0.587577
    108 O17        -1.3930   -2.8650    4.7540 o         1 MOL     -0.680707
    109 O18        -0.7510   -1.6350    3.0760 o         1 MOL     -0.680707
    110 H47        -2.8430   -1.3560    0.9430 hn        1 MOL     -0.123699
    111 H48        -3.9950   -3.2650    2.9150 h1        1 MOL      0.051925
    112 H49        -3.6750   -1.6860    4.5790 hc        1 MOL      0.000147
    113 H50        -3.1530   -0.4530    3.5580 hc        1 MOL      0.000147
    114 N11        -5.3990   -0.9040    1.2470 n         1 MOL     -0.109128
    115 C36        -6.6620   -0.2240    0.9740 c3        1 MOL      0.208959
    116 C37        -6.5020    1.1870    0.3810 c         1 MOL      0.256205
    117 O19        -7.0810    1.5190   -0.6800 o         1 MOL     -0.490833
    118 C38        -7.5630   -1.2140    0.1840 c3        1 MOL     -0.395760
    119 C39        -8.9500   -0.8030   -0.2720 ca        1 MOL      0.240030
    120 C40        -9.7590   -0.3390    0.8120 ca        1 MOL     -0.211384
    121 C41        -9.5810   -1.2240   -1.4810 ca        1 MOL     -0.211384
    122 C42       -11.1450   -0.1700    0.6990 ca        1 MOL     -0.091528
    123 C43       -10.9250   -0.9510   -1.5750 ca        1 MOL     -0.091528
    124 C44       -11.6630   -0.3820   -0.5600 ca        1 MOL     -0.144214
    125 H51        -4.7560   -0.8590    0.4660 hn        1 MOL      0.250360
    126 H52        -7.0720   -0.0530    1.9640 h1        1 MOL      0.023674
    127 H53        -7.6160   -2.0770    0.8330 hc        1 MOL      0.132376
    128 H54        -7.0330   -1.5890   -0.6970 hc        1 MOL      0.132376
    129 H55        -9.3530   -0.1400    1.7920 ha        1 MOL      0.132181
    130 H56        -9.0340   -1.7230   -2.2660 ha        1 MOL      0.132181
    131 H57       -11.8530    0.1790    1.4340 ha        1 MOL      0.093568
    132 H58       -11.4540   -1.2510   -2.4710 ha        1 MOL      0.093568
    133 H59       -12.7070   -0.1600   -0.7260 ha        1 MOL      0.089388
    134 N12        -5.8490    2.0100    1.1390 n         1 MOL      0.019540
    135 C45        -5.6690    3.4100    0.7100 c3        1 MOL     -0.134100
    136 C46        -4.9470    3.5590   -0.5960 c         1 MOL      0.311998
    137 O20        -4.9070    4.6670   -1.1830 o         1 MOL     -0.510811
    138 C47        -4.7700    4.0540    1.8090 c3        1 MOL      0.042655
    139 C48        -5.1880    3.2500    3.0730 c3        1 MOL     -0.239405
    140 C49        -5.3420    1.8400    2.4470 c3        1 MOL     -0.029159
    141 H60        -6.5920    4.0030    0.7510 h1        1 MOL      0.129801
    142 H61        -3.6970    3.9850    1.6740 hc        1 MOL      0.043350
    143 H62        -4.9940    5.1160    1.8640 hc        1 MOL      0.043350
    144 H63        -4.3960    3.2840    3.8220 hc        1 MOL      0.080254
    145 H64        -6.0770    3.7720    3.4430 hc        1 MOL      0.080254
    146 H65        -4.3870    1.3120    2.4090 h1        1 MOL      0.082491
    147 H66        -6.0130    1.1980    3.0320 h1        1 MOL      0.082491
    148 N13        -4.2880    2.5040   -1.0970 n         1 MOL     -0.025447
    149 C50        -3.7330    2.4530   -2.4500 c3        1 MOL     -0.249242
    150 C51        -4.8830    2.5150   -3.4530 c         1 MOL      0.571487
    151 O21        -5.0140    3.4760   -4.2230 o         1 MOL     -0.557328
    152 C52        -2.7570    1.2450   -2.7500 c3        1 MOL     -0.090148
    153 C53        -1.6280    1.0250   -1.6590 c3        1 MOL     -0.033266
    154 C54        -2.2050    0.5540   -0.3290 c         1 MOL      0.565715
    155 O22        -1.3690    0.3830    0.5610 o         1 MOL     -0.598461
    156 O23        -3.3790    0.1240   -0.2420 o         1 MOL     -0.598461
    157 H67        -4.4350    1.6720   -0.5360 hn        1 MOL      0.121337
    158 H68        -3.0610    3.3170   -2.5070 h1        1 MOL      0.130370
    159 H69        -2.2880    1.3750   -3.7230 hc        1 MOL      0.022965
    160 H70        -3.2560    0.2770   -2.7370 hc        1 MOL      0.022965
    161 H71        -1.0240    1.9170   -1.5070 hc        1 MOL      0.044636
    162 H72        -0.9450    0.2420   -2.0080 hc        1 MOL      0.044636
    163 N14        -5.8170    1.5640   -3.3580 n         1 MOL     -0.188728
    164 C55        -6.9560    1.5820   -4.2840 c3        1 MOL     -0.226512
    165 H73        -7.8580    1.2730   -3.7560 h1        1 MOL      0.085855
    166 H74        -7.0910    2.5910   -4.6750 h1        1 MOL      0.085855
    167 H75        -6.7650    0.8950   -5.1080 h1        1 MOL      0.085855
    168 H76        -5.9140    0.9670   -2.5460 hn        1 MOL      0.234915
    169 Ca1         0.8910   -0.3750    1.5830 Ca        1 MOL      1.682504
    170 O24         2.1870   -2.5050    2.2940 oh        1 MOL     -0.928819
    171 H77         1.8860   -3.3890    2.0670 ho        1 MOL      0.440978
    172 H78         2.8590   -2.6420    2.9650 ho        1 MOL      0.440978
    173 O25         1.7310    0.7010   -0.7730 oh        1 MOL     -0.928819
    174 H79         1.9060    1.5180   -0.3060 ho        1 MOL      0.440978
    175 H80         2.3130    0.7210   -1.5240 ho        1 MOL      0.440978
    176 O26         0.8910    2.5480    1.4800 oh        1 MOL     -0.928819
    177 H81         0.1030    3.0840    1.4780 ho        1 MOL      0.440978
    178 H82         1.6070    3.1650    1.3340 ho        1 MOL      0.440978
@<TRIPOS>BOND
     1    1    2 1   
     2    1    4 1   
     3    1    5 1   
     4    1    6 1   
     5    2    3 2   
     6    2    7 1   
     7    7    8 1   
     8    7   15 1   
     9    8    9 1   
    10    8   11 1   
    11    8   16 1   
    12    9   10 2   
    13    9   19 1   
    14   11   12 1   
    15   11   17 1   
    16   11   18 1   
    17   12   13 1   
    18   12   14 1   
    19   19   20 1   
    20   19   24 1   
    21   20   21 1   
    22   20   23 1   
    23   20   25 1   
    24   21   22 2   
    25   21   29 1   
    26   23   26 1   
    27   23   27 1   
    28   23   28 1   
    29   29   30 1   
    30   29   37 1   
    31   30   31 1   
    32   30   33 1   
    33   30   38 1   
    34   31   32 2   
    35   31   41 1   
    36   33   34 1   
    37   33   39 1   
    38   33   40 1   
    39   34   35 1   
    40   34   36 1   
    41   41   42 1   
    42   41   45 1   
    43   42   43 1   
    44   42   46 1   
    45   42   47 1   
    46   43   44 2   
    47   43   48 1   
    48   48   49 1   
    49   48   56 1   
    50   49   50 1   
    51   49   52 1   
    52   49   57 1   
    53   50   51 2   
    54   50   62 1   
    55   52   53 1   
    56   52   58 1   
    57   52   59 1   
    58   53   54 1   
    59   53   55 2   
    60   54   60 1   
    61   54   61 1   
    62   62   63 1   
    63   62   66 1   
    64   63   64 1   
    65   63   67 1   
    66   63   68 1   
    67   64   65 2   
    68   64   69 1   
    69   69   70 1   
    70   69   76 1   
    71   70   71 1   
    72   70   73 1   
    73   70   77 1   
    74   71   72 2   
    75   71   83 1   
    76   73   74 1   
    77   73   75 1   
    78   73   78 1   
    79   74   80 1   
    80   74   81 1   
    81   74   82 1   
    82   75   79 1   
    83   83   84 1   
    84   83   91 1   
    85   84   85 1   
    86   84   87 1   
    87   84   92 1   
    88   85   86 2   
    89   85  102 1   
    90   87   88 1   
    91   87   89 1   
    92   87   93 1   
    93   88   90 1   
    94   88   94 1   
    95   88   95 1   
    96   89   96 1   
    97   89   97 1   
    98   89   98 1   
    99   90   99 1   
   100   90  100 1   
   101   90  101 1   
   102  102  103 1   
   103  102  110 1   
   104  103  104 1   
   105  103  106 1   
   106  103  111 1   
   107  104  105 2   
   108  104  114 1   
   109  106  107 1   
   110  106  112 1   
   111  106  113 1   
   112  107  108 1   
   113  107  109 1   
   114  114  115 1   
   115  114  125 1   
   116  115  116 1   
   117  115  118 1   
   118  115  126 1   
   119  116  117 2   
   120  116  134 1   
   121  118  119 1   
   122  118  127 1   
   123  118  128 1   
   124  119  120 ar  
   125  119  121 ar  
   126  120  122 ar  
   127  120  129 1   
   128  121  123 ar  
   129  121  130 1   
   130  122  124 ar  
   131  122  131 1   
   132  123  124 ar  
   133  123  132 1   
   134  124  133 1   
   135  134  135 1   
   136  134  140 1   
   137  135  136 1   
   138  135  138 1   
   139  135  141 1   
   140  136  137 2   
   141  136  148 1   
   142  138  139 1   
   143  138  142 1   
   144  138  143 1   
   145  139  140 1   
   146  139  144 1   
   147  139  145 1   
   148  140  146 1   
   149  140  147 1   
   150  148  149 1   
   151  148  157 1   
   152  149  150 1   
   153  149  152 1   
   154  149  158 1   
   155  150  151 2   
   156  150  163 1   
   157  152  153 1   
   158  152  159 1   
   159  152  160 1   
   160  153  154 1   
   161  153  161 1   
   162  153  162 1   
   163  154  155 1   
   164  154  156 1   
   165  163  164 1   
   166  163  168 1   
   167  164  165 1   
   168  164  166 1   
   169  164  167 1   
   170  170  171 1   
   171  170  172 1   
   172  173  174 1   
   173  173  175 1   
   174  176  177 1   
   175  176  178 1   
@<TRIPOS>SUBSTRUCTURE
     1 MOL         1 TEMP              0 ****  ****    0 ROOT
