@<TRIPOS>MOLECULE
MOL
  198   191     1     0     0
SMALL
resp


@<TRIPOS>ATOM
      1 C1          2.3880    3.0920   -4.5500 c3        1 MOL     -0.368062
      2 C2          3.4890    2.0700   -4.1740 c         1 MOL      0.679995
      3 O1          3.3910    0.8670   -4.4950 o         1 MOL     -0.568281
      4 H1          1.4080    2.6580   -4.3520 hc        1 MOL      0.098738
      5 H2          2.5120    3.9960   -3.9540 hc        1 MOL      0.098738
      6 H3          2.4680    3.3390   -5.6080 hc        1 MOL      0.098738
      7 N1          4.5670    2.5600   -3.5200 n         1 MOL     -0.552489
      8 C3          5.7900    1.7400   -3.4020 c3        1 MOL      0.187891
      9 C4          5.7780    0.6520   -2.3630 c         1 MOL      0.580298
     10 O2          4.8400    0.5020   -1.6170 o         1 MOL     -0.465137
     11 C5          6.9380    2.6580   -3.1200 c3        1 MOL     -0.326246
     12 C6          6.9750    3.2110   -1.6570 c         1 MOL      0.777625
     13 O3          6.4570    4.3270   -1.4130 o         1 MOL     -0.720560
     14 O4          7.6080    2.6150   -0.7410 o         1 MOL     -0.720560
     15 H4          4.4670    3.5010   -3.1750 hn        1 MOL      0.312225
     16 H5          5.9390    1.1450   -4.3090 h1        1 MOL      0.022772
     17 H6          6.9460    3.4710   -3.8420 hc        1 MOL      0.065978
     18 H7          7.8470    2.0730   -3.2380 hc        1 MOL      0.065978
     19 N2          6.7470   -0.3050   -2.4100 n         1 MOL     -0.556417
     20 C7          6.6930   -1.5270   -1.5110 c3        1 MOL     -0.005410
     21 C8          6.6700   -1.4100   -0.0130 c         1 MOL      0.197407
     22 O5          6.7260   -2.4270    0.7220 o         1 MOL     -0.526688
     23 C9          7.9350   -2.2860   -1.9130 c3        1 MOL     -0.103200
     24 C10         9.2140   -1.7190   -1.3260 c3        1 MOL     -0.002743
     25 C11        10.4200   -2.3960   -2.0220 c3        1 MOL     -0.251955
     26 C12        10.8040   -1.8160   -3.4500 c3        1 MOL      0.122133
     27 N3         11.9480   -2.6160   -4.0390 n4        1 MOL     -0.192471
     28 H8          7.4730   -0.0580   -3.0660 hn        1 MOL      0.273293
     29 H9          5.8300   -2.0980   -1.8490 h1        1 MOL      0.150290
     30 H10         7.8620   -2.3930   -2.9960 hc        1 MOL      0.043391
     31 H11         7.8350   -3.3320   -1.6210 hc        1 MOL      0.043391
     32 H12         9.3240   -2.1070   -0.3210 hc        1 MOL      0.138147
     33 H13         9.2570   -0.6280   -1.3590 hc        1 MOL      0.138147
     34 H14        10.2780   -3.4670   -2.1070 hc        1 MOL      0.092141
     35 H15        11.2650   -2.2460   -1.3510 hc        1 MOL      0.092141
     36 H16        11.0680   -0.7750   -3.3000 hx        1 MOL      0.038745
     37 H17        10.0490   -1.9080   -4.2300 hx        1 MOL      0.038745
     38 H18        12.8230   -2.4100   -3.5890 hn        1 MOL      0.227071
     39 H19        11.7700   -3.5950   -4.1910 hn        1 MOL      0.227071
     40 H20        12.1440   -2.2140   -4.9490 hn        1 MOL      0.227071
     41 N4          6.6560   -0.2410    0.5570 n         1 MOL      0.466310
     42 C13         6.3070   -0.0410    2.0000 c3        1 MOL     -0.522614
     43 C14         5.3900    1.1890    2.1150 c         1 MOL      0.688165
     44 O6          5.4690    2.0260    1.1470 o         1 MOL     -0.663051
     45 C15         7.5220    0.1600    2.8920 c3        1 MOL     -0.399798
     46 C16         8.6490    0.9480    2.2590 c         1 MOL      0.859957
     47 O7          9.5580    0.2940    1.7860 o         1 MOL     -0.777138
     48 O8          8.6080    2.1960    2.2680 o         1 MOL     -0.777138
     49 H21         6.7040    0.6100    0.0190 hn        1 MOL     -0.069851
     50 H22         5.8140   -0.9080    2.4360 h1        1 MOL      0.234056
     51 H23         7.9400   -0.8390    3.0740 hc        1 MOL      0.144574
     52 H24         7.3900    0.6700    3.8350 hc        1 MOL      0.144574
     53 N5          4.3890    1.3440    3.0210 n         1 MOL     -0.440905
     54 C17         4.3530    0.6700    4.3420 c3        1 MOL     -0.177117
     55 C18         4.0190   -0.8630    4.3640 c         1 MOL      0.631742
     56 O9          4.9490   -1.7120    4.6920 o         1 MOL     -0.521099
     57 H25         3.7710    2.1350    2.9620 hn        1 MOL      0.327217
     58 H26         3.5640    1.2640    4.7920 h1        1 MOL      0.097618
     59 H27         5.2640    0.9430    4.8690 h1        1 MOL      0.097618
     60 N6          2.7920   -1.2840    4.1170 n         1 MOL     -0.429031
     61 C19         2.4190   -2.6480    4.0780 c3        1 MOL     -0.035264
     62 C20         1.2860   -3.0430    3.1080 c         1 MOL      0.595832
     63 O10         0.5400   -2.1320    2.7350 o         1 MOL     -0.533329
     64 C21         2.1610   -3.2040    5.5100 c3        1 MOL     -0.176915
     65 C22         1.8090   -2.1650    6.5310 c         1 MOL      0.708481
     66 O11         2.6800   -1.8970    7.3660 o         1 MOL     -0.658546
     67 O12         0.6910   -1.6420    6.6050 o         1 MOL     -0.658546
     68 H28         2.0520   -0.6280    3.9130 hn        1 MOL      0.306194
     69 H29         3.2960   -3.1800    3.7120 h1        1 MOL      0.050443
     70 H30         3.0910   -3.6960    5.8070 hc        1 MOL      0.043990
     71 H31         1.4590   -4.0290    5.5100 hc        1 MOL      0.043990
     72 N7          1.1890   -4.2860    2.6440 n         1 MOL     -0.374809
     73 C23         0.1610   -4.7990    1.7770 c3        1 MOL     -0.126770
     74 C24         0.1960   -4.2780    0.3060 c         1 MOL      0.488682
     75 O13        -0.8210   -4.4390   -0.3560 o         1 MOL     -0.532582
     76 H32         1.7490   -4.9860    3.1140 hn        1 MOL      0.264190
     77 H33        -0.8280   -4.5730    2.1920 h1        1 MOL      0.102148
     78 H34         0.2450   -5.8880    1.7800 h1        1 MOL      0.102148
     79 N8          1.3190   -3.8310   -0.2340 n         1 MOL     -0.387996
     80 C25         1.4280   -3.5950   -1.7180 c3        1 MOL      0.020060
     81 C26         0.9000   -2.1880   -2.0980 c         1 MOL      0.574566
     82 O14         1.2850   -1.1440   -1.5610 o         1 MOL     -0.530549
     83 C27         2.7920   -3.9330   -2.3010 c3        1 MOL      0.379043
     84 C28         3.4350   -5.3020   -1.9290 c3        1 MOL     -0.401586
     85 O15         2.7450   -3.8950   -3.7040 oh        1 MOL     -0.684117
     86 H35         2.1780   -3.7130    0.2770 hn        1 MOL      0.249252
     87 H36         0.7290   -4.2570   -2.2260 h1        1 MOL      0.064661
     88 H37         3.4610   -3.1770   -1.8730 h1        1 MOL      0.028564
     89 H38         3.1970   -4.6590   -4.0550 ho        1 MOL      0.422276
     90 H39         4.3740   -5.4320   -2.4650 hc        1 MOL      0.101324
     91 H40         3.7620   -5.2410   -0.8960 hc        1 MOL      0.101324
     92 H41         2.7180   -6.0940   -2.1250 hc        1 MOL      0.101324
     93 N9         -0.0630   -2.1510   -2.9700 n         1 MOL     -0.336644
     94 C29        -0.8380   -0.8980   -3.1950 c3        1 MOL     -0.064453
     95 C30        -1.8300   -0.5100   -2.0960 c         1 MOL      0.583879
     96 O16        -2.0410    0.6790   -1.8960 o         1 MOL     -0.534574
     97 C31        -1.5420   -0.9920   -4.6200 c3        1 MOL      0.123418
     98 C32        -0.7330   -1.6370   -5.8180 c3        1 MOL      0.083374
     99 C33        -2.2870    0.2860   -4.9830 c3        1 MOL     -0.197756
    100 C34         0.6830   -1.1210   -5.9820 c3        1 MOL     -0.133083
    101 H42        -0.5120   -2.9380   -3.3980 hn        1 MOL      0.236184
    102 H43        -0.1770   -0.0340   -3.2240 h1        1 MOL      0.116104
    103 H44        -2.3120   -1.7520   -4.4870 hc        1 MOL     -0.020930
    104 H45        -1.2300   -1.3700   -6.7490 hc        1 MOL     -0.026315
    105 H46        -0.8050   -2.7220   -5.7650 hc        1 MOL     -0.026315
    106 H47        -1.5450    1.0400   -5.2610 hc        1 MOL      0.053196
    107 H48        -2.8910    0.1000   -5.8710 hc        1 MOL      0.053196
    108 H49        -3.0620    0.6210   -4.3000 hc        1 MOL      0.053196
    109 H50         1.0630   -1.6080   -6.8770 hc        1 MOL      0.034099
    110 H51         0.7930   -0.0390   -6.1040 hc        1 MOL      0.034099
    111 H52         1.3540   -1.5180   -5.2300 hc        1 MOL      0.034099
    112 N10        -2.4100   -1.5060   -1.3180 n         1 MOL     -0.437957
    113 C35        -3.6580   -1.3740   -0.5210 c3        1 MOL     -0.063503
    114 C36        -4.8910   -2.0190   -1.1980 c         1 MOL      0.664900
    115 O17        -4.7750   -3.0680   -1.9200 o         1 MOL     -0.554997
    116 C37        -3.4400   -1.9050    0.9110 c3        1 MOL      0.486249
    117 C38        -2.4170   -1.1500    1.7790 c3        1 MOL     -0.271692
    118 O18        -4.6290   -1.6990    1.6710 oh        1 MOL     -0.680757
    119 H53        -2.0160   -2.4330   -1.4100 hn        1 MOL      0.223011
    120 H54        -3.8260   -0.3110   -0.3400 h1        1 MOL      0.100122
    121 H55        -3.3320   -2.9890    0.8020 h1        1 MOL     -0.049645
    122 H56        -4.6690   -2.3120    2.4090 ho        1 MOL      0.389305
    123 H57        -2.0970   -1.8910    2.5200 hc        1 MOL      0.083293
    124 H58        -1.5500   -0.8940    1.1610 hc        1 MOL      0.083293
    125 H59        -2.7350   -0.2730    2.3400 hc        1 MOL      0.083293
    126 N11        -6.1180   -1.5650   -0.8610 n         1 MOL     -0.671214
    127 C39        -7.3020   -2.3960   -1.2190 c3        1 MOL      0.096483
    128 C40        -8.5780   -1.5950   -1.2530 c         1 MOL      0.617618
    129 O19        -9.3370   -1.7470   -2.2120 o         1 MOL     -0.563396
    130 C41        -7.4490   -3.5750   -0.2090 c3        1 MOL      0.167299
    131 C42        -8.4810   -4.6790   -0.6470 c3        1 MOL     -0.471591
    132 O20        -7.9120   -3.1460    1.0770 oh        1 MOL     -0.600097
    133 H60        -6.1630   -0.9150   -0.0970 hn        1 MOL      0.334024
    134 H61        -7.0630   -2.8980   -2.1610 h1        1 MOL      0.109523
    135 H62        -6.4580   -3.9590    0.0020 h1        1 MOL      0.103661
    136 H63        -7.7680   -3.8330    1.7320 ho        1 MOL      0.382758
    137 H64        -8.3300   -5.0290   -1.6650 hc        1 MOL      0.126601
    138 H65        -8.2620   -5.5150    0.0320 hc        1 MOL      0.126601
    139 H66        -9.5020   -4.3110   -0.5550 hc        1 MOL      0.126601
    140 N12        -8.7000   -0.5960   -0.3610 n         1 MOL     -0.380871
    141 C43        -9.8970    0.2640   -0.1380 c3        1 MOL     -0.242957
    142 C44        -9.6710    1.6430    0.5440 c         1 MOL      0.658013
    143 O21        -8.8720    1.7030    1.4720 o         1 MOL     -0.509345
    144 C45       -11.0450   -0.5230    0.4320 c3        1 MOL     -0.175361
    145 C46       -10.7380   -0.9860    1.9570 c3        1 MOL      0.023631
    146 C47       -11.5870   -2.1750    2.4500 c3        1 MOL      0.026861
    147 C48       -11.0210   -3.4800    1.8880 c3        1 MOL      0.093551
    148 N13       -11.5400   -4.6090    2.5940 n4        1 MOL     -0.420073
    149 H67        -7.9040   -0.4810    0.2460 hn        1 MOL      0.290816
    150 H68       -10.1620    0.5260   -1.1620 h1        1 MOL      0.148160
    151 H69       -11.3350   -1.3650   -0.2040 hc        1 MOL      0.088667
    152 H70       -11.9070    0.1100    0.2730 hc        1 MOL      0.088667
    153 H71       -11.0090   -0.1690    2.6250 hc        1 MOL      0.028598
    154 H72        -9.6890   -1.2480    2.0980 hc        1 MOL      0.028598
    155 H73       -12.6060   -2.0230    2.0700 hc        1 MOL      0.013602
    156 H74       -11.4770   -2.1900    3.5350 hc        1 MOL      0.013602
    157 H75        -9.9420   -3.4250    1.9920 hx        1 MOL      0.073092
    158 H76       -11.1700   -3.5450    0.8090 hx        1 MOL      0.073092
    159 H77       -12.4570   -4.9150    2.2860 hn        1 MOL      0.285118
    160 H78       -10.9060   -5.4020    2.5200 hn        1 MOL      0.285118
    161 H79       -11.5410   -4.4130    3.5830 hn        1 MOL      0.285118
    162 N14       -10.3550    2.6820    0.0730 n         1 MOL     -0.430092
    163 C49       -10.0820    4.0850    0.5690 c3        1 MOL      0.094050
    164 C50        -8.6670    4.5830    0.3550 c         1 MOL      0.337194
    165 O22        -7.9250    4.7780    1.3190 o         1 MOL     -0.499141
    166 C51       -11.1950    5.0110   -0.0710 c3        1 MOL      0.057190
    167 C52       -12.5920    4.8480    0.5200 c3        1 MOL     -0.285403
    168 C53       -13.6670    5.5230   -0.3940 c         1 MOL      0.736722
    169 O23       -14.1430    4.8040   -1.3380 o         1 MOL     -0.669632
    170 O24       -13.9760    6.6950   -0.2620 o         1 MOL     -0.669632
    171 H80       -10.8570    2.6500   -0.8080 hn        1 MOL      0.285380
    172 H81       -10.2540    4.0560    1.6450 h1        1 MOL      0.083382
    173 H82       -11.3170    4.6670   -1.0990 hc        1 MOL      0.030174
    174 H83       -10.9580    6.0650   -0.2260 hc        1 MOL      0.030174
    175 H84       -12.6250    5.2500    1.5330 hc        1 MOL      0.031614
    176 H85       -12.8880    3.8100    0.6350 hc        1 MOL      0.031614
    177 N15        -8.1270    4.7470   -0.8800 n         1 MOL     -0.309270
    178 C54        -8.7470    4.4580   -2.1500 c3        1 MOL     -0.026773
    179 H86        -9.3950    5.2870   -2.4340 h1        1 MOL      0.038650
    180 H87        -7.9760    4.3230   -2.9090 h1        1 MOL      0.038650
    181 H88        -9.3400    3.5470   -2.0670 h1        1 MOL      0.038650
    182 H89        -7.1820    5.1080   -0.9410 hn        1 MOL      0.283269
    183 Ca1         7.0570    4.1370    1.3850 Ca        1 MOL      1.771176
    184 O25         6.4950    6.8120    0.9900 oh        1 MOL     -0.828745
    185 H90         6.1140    7.5860    1.4110 ho        1 MOL      0.412601
    186 H91         7.0440    7.1780    0.3000 ho        1 MOL      0.412601
    187 O26         8.9300    5.0890    3.1490 oh        1 MOL     -0.828745
    188 H92         8.7460    5.5690    3.9500 ho        1 MOL      0.412601
    189 H93         9.7100    4.5730    3.3550 ho        1 MOL      0.412601
    190 O27         9.5150    4.9580    0.3590 oh        1 MOL     -0.828745
    191 H94        10.1780    4.8680    1.0410 ho        1 MOL      0.412601
    192 H95        10.0130    5.0260   -0.4560 ho        1 MOL      0.412601
    193 O28         4.3580    5.0430    1.6030 oh        1 MOL     -0.828745
    194 H96         3.7990    5.7720    1.3460 ho        1 MOL      0.412601
    195 H97         3.7530    4.3580    1.8780 ho        1 MOL      0.412601
    196 O29         6.2220    3.9430    3.9230 oh        1 MOL     -0.828745
    197 H98         6.8070    3.5920    4.5890 ho        1 MOL      0.412601
    198 H99         5.5530    4.4230    4.4120 ho        1 MOL      0.412601
@<TRIPOS>BOND
     1    1    2 1   
     2    1    4 1   
     3    1    5 1   
     4    1    6 1   
     5    2    3 2   
     6    2    7 1   
     7    7    8 1   
     8    7   15 1   
     9    8    9 1   
    10    8   11 1   
    11    8   16 1   
    12    9   10 2   
    13    9   19 1   
    14   11   12 1   
    15   11   17 1   
    16   11   18 1   
    17   12   13 1   
    18   12   14 1   
    19   19   20 1   
    20   19   28 1   
    21   20   21 1   
    22   20   23 1   
    23   20   29 1   
    24   21   22 2   
    25   21   41 1   
    26   23   24 1   
    27   23   30 1   
    28   23   31 1   
    29   24   25 1   
    30   24   32 1   
    31   24   33 1   
    32   25   26 1   
    33   25   34 1   
    34   25   35 1   
    35   26   27 1   
    36   26   36 1   
    37   26   37 1   
    38   27   38 1   
    39   27   39 1   
    40   27   40 1   
    41   41   42 1   
    42   41   49 1   
    43   42   43 1   
    44   42   45 1   
    45   42   50 1   
    46   43   44 2   
    47   43   53 1   
    48   45   46 1   
    49   45   51 1   
    50   45   52 1   
    51   46   47 1   
    52   46   48 1   
    53   53   54 1   
    54   53   57 1   
    55   54   55 1   
    56   54   58 1   
    57   54   59 1   
    58   55   56 2   
    59   55   60 1   
    60   60   61 1   
    61   60   68 1   
    62   61   62 1   
    63   61   64 1   
    64   61   69 1   
    65   62   63 2   
    66   62   72 1   
    67   64   65 1   
    68   64   70 1   
    69   64   71 1   
    70   65   66 1   
    71   65   67 1   
    72   72   73 1   
    73   72   76 1   
    74   73   74 1   
    75   73   77 1   
    76   73   78 1   
    77   74   75 2   
    78   74   79 1   
    79   79   80 1   
    80   79   86 1   
    81   80   81 1   
    82   80   83 1   
    83   80   87 1   
    84   81   82 2   
    85   81   93 1   
    86   83   84 1   
    87   83   85 1   
    88   83   88 1   
    89   84   90 1   
    90   84   91 1   
    91   84   92 1   
    92   85   89 1   
    93   93   94 1   
    94   93  101 1   
    95   94   95 1   
    96   94   97 1   
    97   94  102 1   
    98   95   96 2   
    99   95  112 1   
   100   97   98 1   
   101   97   99 1   
   102   97  103 1   
   103   98  100 1   
   104   98  104 1   
   105   98  105 1   
   106   99  106 1   
   107   99  107 1   
   108   99  108 1   
   109  100  109 1   
   110  100  110 1   
   111  100  111 1   
   112  112  113 1   
   113  112  119 1   
   114  113  114 1   
   115  113  116 1   
   116  113  120 1   
   117  114  115 2   
   118  114  126 1   
   119  116  117 1   
   120  116  118 1   
   121  116  121 1   
   122  117  123 1   
   123  117  124 1   
   124  117  125 1   
   125  118  122 1   
   126  126  127 1   
   127  126  133 1   
   128  127  128 1   
   129  127  130 1   
   130  127  134 1   
   131  128  129 2   
   132  128  140 1   
   133  130  131 1   
   134  130  132 1   
   135  130  135 1   
   136  131  137 1   
   137  131  138 1   
   138  131  139 1   
   139  132  136 1   
   140  140  141 1   
   141  140  149 1   
   142  141  142 1   
   143  141  144 1   
   144  141  150 1   
   145  142  143 2   
   146  142  162 1   
   147  144  145 1   
   148  144  151 1   
   149  144  152 1   
   150  145  146 1   
   151  145  153 1   
   152  145  154 1   
   153  146  147 1   
   154  146  155 1   
   155  146  156 1   
   156  147  148 1   
   157  147  157 1   
   158  147  158 1   
   159  148  159 1   
   160  148  160 1   
   161  148  161 1   
   162  162  163 1   
   163  162  171 1   
   164  163  164 1   
   165  163  166 1   
   166  163  172 1   
   167  164  165 2   
   168  164  177 1   
   169  166  167 1   
   170  166  173 1   
   171  166  174 1   
   172  167  168 1   
   173  167  175 1   
   174  167  176 1   
   175  168  169 1   
   176  168  170 1   
   177  177  178 1   
   178  177  182 1   
   179  178  179 1   
   180  178  180 1   
   181  178  181 1   
   182  184  185 1   
   183  184  186 1   
   184  187  188 1   
   185  187  189 1   
   186  190  191 1   
   187  190  192 1   
   188  193  194 1   
   189  193  195 1   
   190  196  197 1   
   191  196  198 1   
@<TRIPOS>SUBSTRUCTURE
     1 MOL         1 TEMP              0 ****  ****    0 ROOT
