@<TRIPOS>MOLECULE
MOL
  178   175     1     0     0
SMALL
resp


@<TRIPOS>ATOM
      1 C1          4.0280   -2.5290    2.9140 c3        1 MOL     -0.435611
      2 C2          5.2680   -1.7500    2.5090 c         1 MOL      0.706248
      3 O1          5.2220   -0.6310    2.0570 o         1 MOL     -0.535925
      4 H1          4.2020   -3.5940    2.7600 hc        1 MOL      0.110435
      5 H2          3.8100   -2.3460    3.9660 hc        1 MOL      0.110435
      6 H3          3.1820   -2.2080    2.3070 hc        1 MOL      0.110435
      7 N1          6.4780   -2.3660    2.7170 n         1 MOL     -0.521987
      8 C3          7.7790   -1.6570    2.5880 c3        1 MOL      0.086803
      9 C4          8.3030   -1.4080    1.1530 c         1 MOL      0.519358
     10 O2          8.5490   -2.3100    0.3070 o         1 MOL     -0.524708
     11 C5          8.8530   -2.3800    3.3650 c3        1 MOL     -0.153889
     12 C6         10.0370   -1.5100    3.7380 c         1 MOL      0.635675
     13 O3          9.8610   -0.5130    4.5090 o         1 MOL     -0.711646
     14 O4         11.1740   -1.8700    3.2850 o         1 MOL     -0.711646
     15 H4          6.4770   -3.2300    3.2510 hn        1 MOL      0.274397
     16 H5          7.7070   -0.6640    3.0320 h1        1 MOL      0.018379
     17 H6          9.2240   -3.2090    2.7580 hc        1 MOL      0.025313
     18 H7          8.4290   -2.7050    4.3090 hc        1 MOL      0.025313
     19 N2          8.3990   -0.0740    0.8260 n         1 MOL     -0.395237
     20 C7          8.5020    0.4760   -0.5680 c3        1 MOL      0.156835
     21 C8          7.1040    0.3140   -1.2390 c         1 MOL      0.585873
     22 O5          6.4130    1.2560   -1.6630 o         1 MOL     -0.564037
     23 C9          8.9560    1.9770   -0.4260 c3        1 MOL     -0.415977
     24 H8          8.2320    0.5840    1.5740 hn        1 MOL      0.286562
     25 H9          9.3040   -0.0540   -1.0940 h1        1 MOL      0.058556
     26 H10         9.0580    2.5220   -1.3760 hc        1 MOL      0.113825
     27 H11         8.3300    2.4750    0.3090 hc        1 MOL      0.113825
     28 H12         9.9070    1.9340    0.1080 hc        1 MOL      0.113825
     29 N3          6.6870   -0.9480   -1.4000 n         1 MOL     -0.754769
     30 C10         5.2420   -1.3600   -1.6070 c3        1 MOL      0.506985
     31 C11         4.4730   -0.9220   -2.9260 c         1 MOL      0.197697
     32 O6          3.3820   -1.4350   -3.1990 o         1 MOL     -0.435961
     33 C12         5.1540   -2.8810   -1.5990 c3        1 MOL     -0.109143
     34 C13         3.7480   -3.5130   -1.3380 c         1 MOL      0.682993
     35 O7          3.4050   -4.5730   -1.8550 o         1 MOL     -0.719401
     36 O8          2.9780   -2.9180   -0.5540 o         1 MOL     -0.719401
     37 H13         7.4160   -1.6240   -1.2420 hn        1 MOL      0.309658
     38 H14         4.7040   -0.9250   -0.7640 h1        1 MOL      0.024571
     39 H15         5.9040   -3.2350   -0.8950 hc        1 MOL     -0.003252
     40 H16         5.5590   -3.2100   -2.5550 hc        1 MOL     -0.003252
     41 N4          4.9770    0.0210   -3.7130 n         1 MOL     -0.086933
     42 C14         4.3660    0.3660   -5.0250 c3        1 MOL     -0.255202
     43 C15         3.0280    1.1840   -4.9840 c         1 MOL      0.580097
     44 O9          2.2890    1.2530   -5.9650 o         1 MOL     -0.545767
     45 H17         5.8940    0.4050   -3.5240 hn        1 MOL      0.218143
     46 H18         4.2720   -0.5470   -5.6160 h1        1 MOL      0.091028
     47 H19         5.0840    1.0290   -5.4950 h1        1 MOL      0.091028
     48 N5          2.7670    1.7970   -3.8480 n         1 MOL     -0.345094
     49 C16         1.5840    2.6040   -3.5770 c3        1 MOL     -0.015548
     50 C17         2.0040    3.7750   -2.6740 c         1 MOL      0.519869
     51 O10         3.0100    3.6730   -2.0190 o         1 MOL     -0.513574
     52 C18         0.4740    1.8100   -2.9050 c3        1 MOL     -0.302752
     53 C19        -0.1270    0.7920   -3.8620 c         1 MOL      0.700205
     54 N6          0.0030   -0.4460   -3.4150 n         1 MOL     -0.730202
     55 O11        -0.8140    1.0600   -4.8470 o         1 MOL     -0.603828
     56 H20         3.3320    1.5950   -3.0360 hn        1 MOL      0.248987
     57 H21         1.2500    3.0080   -4.5280 h1        1 MOL      0.064172
     58 H22        -0.3490    2.4210   -2.5500 hc        1 MOL      0.137769
     59 H23         0.8500    1.2820   -2.0230 hc        1 MOL      0.137769
     60 H24         0.5290   -0.5830   -2.5580 hn        1 MOL      0.329505
     61 H25        -0.0790   -1.2610   -3.9990 hn        1 MOL      0.329505
     62 N7          1.3380    4.8890   -2.7540 n         1 MOL     -0.388036
     63 C20         1.5790    6.0080   -1.8510 c3        1 MOL     -0.057995
     64 C21         0.2970    6.3800   -1.1390 c         1 MOL      0.545639
     65 O12        -0.7900    5.8500   -1.3950 o         1 MOL     -0.523804
     66 H26         0.4700    4.8680   -3.2790 hn        1 MOL      0.265426
     67 H27         1.9000    6.8880   -2.4100 h1        1 MOL      0.081283
     68 H28         2.2790    5.8310   -1.0310 h1        1 MOL      0.081283
     69 N8          0.3950    7.1480   -0.0820 n         1 MOL     -0.378580
     70 C22        -0.7830    7.5280    0.8510 c3        1 MOL     -0.545028
     71 C23        -1.4390    6.2650    1.4350 c         1 MOL      0.747128
     72 O13        -2.5570    6.3260    1.7360 o         1 MOL     -0.574237
     73 C24        -0.4280    8.6660    1.7900 c3        1 MOL      0.483300
     74 C25         0.4320    8.2190    2.9850 c3        1 MOL     -0.451900
     75 O14         0.2130    9.7340    1.1210 oh        1 MOL     -0.619864
     76 H29         1.3320    7.4980    0.0690 hn        1 MOL      0.243386
     77 H30        -1.4260    8.0420    0.1380 h1        1 MOL      0.243329
     78 H31        -1.3470    9.1070    2.1700 h1        1 MOL      0.058455
     79 H32         1.1500    9.5250    1.0640 ho        1 MOL      0.393156
     80 H33        -0.0970    7.6270    3.7340 hc        1 MOL      0.114117
     81 H34         1.2440    7.5670    2.6620 hc        1 MOL      0.114117
     82 H35         0.8670    9.0590    3.5290 hc        1 MOL      0.114117
     83 N9         -0.7360    5.1580    1.5130 n         1 MOL     -0.383848
     84 C26        -1.2090    3.8310    2.0590 c3        1 MOL     -0.006203
     85 C27        -0.8890    2.6630    1.1200 c         1 MOL      0.517232
     86 O15         0.1360    2.6750    0.5010 o         1 MOL     -0.490735
     87 C28        -0.7030    3.6880    3.5500 c3        1 MOL      0.008397
     88 C29        -1.7040    4.3860    4.5530 c3        1 MOL     -0.016336
     89 C30        -0.7410    2.2130    4.0450 c3        1 MOL     -0.030917
     90 C31        -0.9470    4.8620    5.8160 c3        1 MOL     -0.029081
     91 H36         0.2110    5.1730    1.1740 hn        1 MOL      0.263951
     92 H37        -2.2980    3.8210    2.0320 h1        1 MOL      0.041043
     93 H38         0.2930    4.1300    3.6130 hc        1 MOL      0.055449
     94 H39        -2.5450    3.7470    4.8090 hc        1 MOL      0.010454
     95 H40        -2.1890    5.2900    4.1970 hc        1 MOL      0.010454
     96 H41        -1.6190    1.6600    3.6910 hc        1 MOL      0.009219
     97 H42         0.0670    1.6020    3.6650 hc        1 MOL      0.009219
     98 H43        -0.7610    2.1320    5.1340 hc        1 MOL      0.009219
     99 H44        -0.2730    4.0840    6.1970 hc        1 MOL      0.003246
    100 H45        -0.3510    5.7290    5.5320 hc        1 MOL      0.003246
    101 H46        -1.6080    5.1640    6.6340 hc        1 MOL      0.003246
    102 N10        -1.7690    1.7010    1.0200 n         1 MOL     -0.325087
    103 C32        -1.7330    0.4410    0.3340 c3        1 MOL      0.054323
    104 C33        -3.1320   -0.0370   -0.0890 c         1 MOL      0.534913
    105 O16        -3.4420   -1.2750   -0.2170 o         1 MOL     -0.500133
    106 C34        -1.0720   -0.5870    1.2520 c3        1 MOL     -0.070352
    107 C35        -0.5600   -1.7640    0.4230 c         1 MOL      0.825542
    108 O17        -0.3740   -2.8580    0.9820 o         1 MOL     -0.810073
    109 O18         0.0580   -1.6960   -0.6600 o         1 MOL     -0.810073
    110 H47        -2.6520    1.8910    1.4760 hn        1 MOL      0.236238
    111 H48        -1.0290    0.5380   -0.4860 h1        1 MOL      0.010077
    112 H49        -1.8360   -0.8370    1.9830 hc        1 MOL      0.043855
    113 H50        -0.2220   -0.2040    1.8230 hc        1 MOL      0.043855
    114 N11        -4.1340    0.8700   -0.1660 n         1 MOL     -0.489321
    115 C36        -5.4840    0.5890   -0.6680 c3        1 MOL      0.337695
    116 C37        -6.2660   -0.4330    0.1970 c         1 MOL      0.215896
    117 O19        -6.4270   -0.1010    1.4030 o         1 MOL     -0.503931
    118 C38        -6.3100    1.8900   -0.8390 c3        1 MOL     -0.174045
    119 C39        -7.7340    1.7060   -1.3150 ca        1 MOL      0.020678
    120 C40        -7.9130    1.2620   -2.6450 ca        1 MOL     -0.105271
    121 C41        -8.9150    2.0270   -0.5270 ca        1 MOL     -0.105271
    122 C42        -9.1630    1.0780   -3.1710 ca        1 MOL     -0.141140
    123 C43       -10.1910    1.7580   -1.0670 ca        1 MOL     -0.141140
    124 C44       -10.3000    1.2480   -2.3680 ca        1 MOL     -0.102592
    125 H51        -3.8930    1.8320    0.0060 hn        1 MOL      0.232751
    126 H52        -5.3620    0.1940   -1.6710 h1        1 MOL     -0.025414
    127 H53        -5.8020    2.5880   -1.5070 hc        1 MOL      0.078879
    128 H54        -6.2330    2.4240    0.1110 hc        1 MOL      0.078879
    129 H55        -7.1110    1.2710   -3.3680 ha        1 MOL      0.115630
    130 H56        -8.7700    2.3250    0.4920 ha        1 MOL      0.115630
    131 H57        -9.2520    0.7820   -4.2080 ha        1 MOL      0.117005
    132 H58       -11.0540    1.7330   -0.4210 ha        1 MOL      0.117005
    133 H59       -11.2730    0.9490   -2.7390 ha        1 MOL      0.097358
    134 N12        -6.8000   -1.5780   -0.3780 n         1 MOL     -0.010220
    135 C45        -7.7340   -2.4770    0.3850 c3        1 MOL      0.003277
    136 C46        -7.0970   -3.3080    1.4850 c         1 MOL      0.267560
    137 O20        -7.7850   -3.9000    2.3090 o         1 MOL     -0.475478
    138 C47        -8.3700   -3.3190   -0.7220 c3        1 MOL     -0.002382
    139 C48        -7.3200   -3.3420   -1.8640 c3        1 MOL     -0.129283
    140 C49        -6.6450   -2.0090   -1.7610 c3        1 MOL     -0.067514
    141 H60        -8.5280   -1.9150    0.8710 h1        1 MOL      0.082583
    142 H61        -8.7350   -4.2890   -0.3630 hc        1 MOL      0.030927
    143 H62        -9.2720   -2.8060   -1.0730 hc        1 MOL      0.030927
    144 H63        -6.5680   -4.1070   -1.6820 hc        1 MOL      0.052849
    145 H64        -7.7010   -3.4460   -2.8780 hc        1 MOL      0.052849
    146 H65        -5.6150   -2.0320   -2.1300 h1        1 MOL      0.066808
    147 H66        -7.2230   -1.3190   -2.3800 h1        1 MOL      0.066808
    148 N13        -5.7100   -3.4570    1.4800 n         1 MOL      0.012713
    149 C50        -4.8590   -4.3940    2.2820 c3        1 MOL     -0.589463
    150 C51        -4.6580   -3.9630    3.7630 c         1 MOL      0.554416
    151 O21        -4.5050   -4.7600    4.7080 o         1 MOL     -0.523578
    152 C52        -3.4860   -4.4760    1.6470 c3        1 MOL      0.412156
    153 C53        -3.4330   -5.1800    0.2870 c3        1 MOL     -0.092154
    154 C54        -2.0420   -5.2840   -0.1520 c         1 MOL      0.595217
    155 O22        -1.1630   -5.7580    0.5690 o         1 MOL     -0.733764
    156 O23        -1.6790   -4.8010   -1.2810 o         1 MOL     -0.733764
    157 H67        -5.1890   -2.9930    0.7460 hn        1 MOL      0.208149
    158 H68        -5.4140   -5.3260    2.3060 h1        1 MOL      0.211645
    159 H69        -2.9240   -5.0210    2.4010 hc        1 MOL     -0.034577
    160 H70        -3.0260   -3.4860    1.5460 hc        1 MOL     -0.034577
    161 H71        -4.0550   -4.6740   -0.4500 hc        1 MOL     -0.001398
    162 H72        -3.9300   -6.1500    0.3820 hc        1 MOL     -0.001398
    163 N14        -4.5860   -2.6150    4.1060 n         1 MOL     -0.235038
    164 C55        -4.2860   -2.0370    5.4390 c3        1 MOL     -0.432400
    165 H73        -3.9680   -1.0010    5.3220 h1        1 MOL      0.155939
    166 H74        -5.1800   -2.0740    6.0610 h1        1 MOL      0.155939
    167 H75        -3.4890   -2.6100    5.9130 h1        1 MOL      0.155939
    168 H76        -4.7700   -1.9570    3.3560 hn        1 MOL      0.224943
    169 Ca1         0.7740   -4.2780   -0.7880 Ca        1 MOL      1.773643
    170 O24         1.8840   -6.1060    0.8010 oh        1 MOL     -0.805506
    171 H77         2.7720   -6.1120    1.1660 ho        1 MOL      0.397663
    172 H78         1.3850   -6.6800    1.3910 ho        1 MOL      0.397663
    173 O25         1.0590   -6.1590   -2.7080 oh        1 MOL     -0.805506
    174 H79         0.4880   -6.9240   -2.6420 ho        1 MOL      0.397663
    175 H80         1.0570   -5.9420   -3.6400 ho        1 MOL      0.397663
    176 O26         0.7850   -3.3070   -3.4610 oh        1 MOL     -0.805506
    177 H81         1.6100   -2.8210   -3.5440 ho        1 MOL      0.397663
    178 H82         0.2990   -3.1080   -4.2610 ho        1 MOL      0.397663
@<TRIPOS>BOND
     1    1    2 1   
     2    1    4 1   
     3    1    5 1   
     4    1    6 1   
     5    2    3 2   
     6    2    7 1   
     7    7    8 1   
     8    7   15 1   
     9    8    9 1   
    10    8   11 1   
    11    8   16 1   
    12    9   10 2   
    13    9   19 1   
    14   11   12 1   
    15   11   17 1   
    16   11   18 1   
    17   12   13 1   
    18   12   14 1   
    19   19   20 1   
    20   19   24 1   
    21   20   21 1   
    22   20   23 1   
    23   20   25 1   
    24   21   22 2   
    25   21   29 1   
    26   23   26 1   
    27   23   27 1   
    28   23   28 1   
    29   29   30 1   
    30   29   37 1   
    31   30   31 1   
    32   30   33 1   
    33   30   38 1   
    34   31   32 2   
    35   31   41 1   
    36   33   34 1   
    37   33   39 1   
    38   33   40 1   
    39   34   35 1   
    40   34   36 1   
    41   41   42 1   
    42   41   45 1   
    43   42   43 1   
    44   42   46 1   
    45   42   47 1   
    46   43   44 2   
    47   43   48 1   
    48   48   49 1   
    49   48   56 1   
    50   49   50 1   
    51   49   52 1   
    52   49   57 1   
    53   50   51 2   
    54   50   62 1   
    55   52   53 1   
    56   52   58 1   
    57   52   59 1   
    58   53   54 1   
    59   53   55 2   
    60   54   60 1   
    61   54   61 1   
    62   62   63 1   
    63   62   66 1   
    64   63   64 1   
    65   63   67 1   
    66   63   68 1   
    67   64   65 2   
    68   64   69 1   
    69   69   70 1   
    70   69   76 1   
    71   70   71 1   
    72   70   73 1   
    73   70   77 1   
    74   71   72 2   
    75   71   83 1   
    76   73   74 1   
    77   73   75 1   
    78   73   78 1   
    79   74   80 1   
    80   74   81 1   
    81   74   82 1   
    82   75   79 1   
    83   83   84 1   
    84   83   91 1   
    85   84   85 1   
    86   84   87 1   
    87   84   92 1   
    88   85   86 2   
    89   85  102 1   
    90   87   88 1   
    91   87   89 1   
    92   87   93 1   
    93   88   90 1   
    94   88   94 1   
    95   88   95 1   
    96   89   96 1   
    97   89   97 1   
    98   89   98 1   
    99   90   99 1   
   100   90  100 1   
   101   90  101 1   
   102  102  103 1   
   103  102  110 1   
   104  103  104 1   
   105  103  106 1   
   106  103  111 1   
   107  104  105 2   
   108  104  114 1   
   109  106  107 1   
   110  106  112 1   
   111  106  113 1   
   112  107  108 1   
   113  107  109 1   
   114  114  115 1   
   115  114  125 1   
   116  115  116 1   
   117  115  118 1   
   118  115  126 1   
   119  116  117 2   
   120  116  134 1   
   121  118  119 1   
   122  118  127 1   
   123  118  128 1   
   124  119  120 ar  
   125  119  121 ar  
   126  120  122 ar  
   127  120  129 1   
   128  121  123 ar  
   129  121  130 1   
   130  122  124 ar  
   131  122  131 1   
   132  123  124 ar  
   133  123  132 1   
   134  124  133 1   
   135  134  135 1   
   136  134  140 1   
   137  135  136 1   
   138  135  138 1   
   139  135  141 1   
   140  136  137 2   
   141  136  148 1   
   142  138  139 1   
   143  138  142 1   
   144  138  143 1   
   145  139  140 1   
   146  139  144 1   
   147  139  145 1   
   148  140  146 1   
   149  140  147 1   
   150  148  149 1   
   151  148  157 1   
   152  149  150 1   
   153  149  152 1   
   154  149  158 1   
   155  150  151 2   
   156  150  163 1   
   157  152  153 1   
   158  152  159 1   
   159  152  160 1   
   160  153  154 1   
   161  153  161 1   
   162  153  162 1   
   163  154  155 1   
   164  154  156 1   
   165  163  164 1   
   166  163  168 1   
   167  164  165 1   
   168  164  166 1   
   169  164  167 1   
   170  170  171 1   
   171  170  172 1   
   172  173  174 1   
   173  173  175 1   
   174  176  177 1   
   175  176  178 1   
@<TRIPOS>SUBSTRUCTURE
     1 MOL         1 TEMP              0 ****  ****    0 ROOT
