@<TRIPOS>MOLECULE
MOL
  192   187     1     0     0
SMALL
resp


@<TRIPOS>ATOM
      1 C1         -3.9770   -5.8610    2.8580 c3        1 MOL     -0.484779
      2 C2         -3.8800   -4.6400    1.9090 c         1 MOL      0.681343
      3 O1         -3.3750   -4.7280    0.7960 o         1 MOL     -0.575813
      4 H1         -3.0030   -6.3450    2.9260 hc        1 MOL      0.137842
      5 H2         -4.2860   -5.5280    3.8480 hc        1 MOL      0.137842
      6 H3         -4.7080   -6.5680    2.4670 hc        1 MOL      0.137842
      7 N1         -4.2530   -3.4700    2.4370 n         1 MOL     -0.478775
      8 C3         -4.1630   -2.1640    1.8350 c3        1 MOL      0.014303
      9 C4         -2.7530   -1.4850    1.6970 c         1 MOL      0.067603
     10 O2         -2.4760   -0.8220    0.6770 o         1 MOL     -0.185374
     11 C5         -5.1430   -1.1330    2.3710 c3        1 MOL     -0.025835
     12 C6         -5.2680   -0.9490    3.9350 c         1 MOL      0.628247
     13 O3         -4.9070    0.1220    4.4590 o         1 MOL     -0.678136
     14 O4         -5.8230   -1.9330    4.5590 o         1 MOL     -0.678136
     15 H4         -4.7230   -3.4880    3.3270 hn        1 MOL      0.292716
     16 H5         -4.4360   -2.2450    0.7930 h1        1 MOL      0.101725
     17 H6         -6.1150   -1.3060    1.9050 hc        1 MOL      0.017137
     18 H7         -4.8620   -0.2340    1.8360 hc        1 MOL      0.017137
     19 N2         -1.8370   -1.7370    2.6550 n         1 MOL     -0.192989
     20 C7         -0.4300   -1.4750    2.4790 c3        1 MOL     -0.000311
     21 C8          0.3380   -2.6240    1.6080 c         1 MOL      0.480774
     22 O5          0.1410   -3.8300    1.8440 o         1 MOL     -0.567835
     23 C9          0.2230   -1.2340    3.8170 c3        1 MOL     -0.178699
     24 C10        -0.1280    0.0330    4.5330 c3        1 MOL     -0.242550
     25 C11        -1.5730    0.2050    4.9240 c3        1 MOL      0.098968
     26 C12        -1.6850    1.4400    5.8100 c3        1 MOL      0.037539
     27 N3         -3.0970    1.6230    6.3210 n4        1 MOL     -0.252651
     28 H8         -2.1020   -2.2710    3.4760 hn        1 MOL      0.259216
     29 H9         -0.3850   -0.6160    1.8030 h1        1 MOL      0.165094
     30 H10         1.3090   -1.3080    3.7390 hc        1 MOL      0.098447
     31 H11        -0.1850   -1.9920    4.4870 hc        1 MOL      0.098447
     32 H12         0.1840    0.8920    3.9420 hc        1 MOL      0.098562
     33 H13         0.4270   -0.0610    5.4620 hc        1 MOL      0.098562
     34 H14        -2.0210   -0.6630    5.4090 hc        1 MOL      0.005766
     35 H15        -2.1900    0.3350    4.0350 hc        1 MOL      0.005766
     36 H16        -1.5580    2.3300    5.1830 hx        1 MOL      0.044761
     37 H17        -0.9960    1.5480    6.6400 hx        1 MOL      0.044761
     38 H18        -3.8000    1.5540    5.6040 hn        1 MOL      0.280968
     39 H19        -3.3470    0.9220    7.0070 hn        1 MOL      0.280968
     40 H20        -3.2360    2.4800    6.8370 hn        1 MOL      0.280968
     41 N4          1.2320   -2.2160    0.6880 n         1 MOL     -0.372629
     42 C13         1.6820   -0.9290    0.1590 c3        1 MOL     -0.211764
     43 C14         2.0870    0.1680    1.1860 c         1 MOL      0.485477
     44 O6          1.3800    1.2160    1.2700 o         1 MOL     -0.575374
     45 C15         0.6550   -0.4190   -0.9390 c3        1 MOL     -0.013152
     46 C16         0.4580   -1.3920   -2.0640 c         1 MOL      0.728894
     47 O7          1.0640   -2.4730   -2.1410 o         1 MOL     -0.789755
     48 O8         -0.4810   -1.2480   -2.8590 o         1 MOL     -0.789755
     49 H21         1.3840   -3.0320    0.1020 hn        1 MOL      0.285713
     50 H22         2.6140   -1.1390   -0.3740 h1        1 MOL      0.151718
     51 H23         1.0570    0.5410   -1.2830 hc        1 MOL      0.043665
     52 H24        -0.3520   -0.1920   -0.5940 hc        1 MOL      0.043665
     53 N5          3.2030    0.0710    1.9600 n         1 MOL     -0.287966
     54 C17         4.3230   -0.9550    1.9230 c3        1 MOL      0.000679
     55 C18         5.5750   -0.6550    2.6600 c         1 MOL      0.567078
     56 O9          5.4720    0.1900    3.5710 o         1 MOL     -0.590662
     57 H25         3.3900    0.8590    2.5690 hn        1 MOL      0.241062
     58 H26         4.6510   -1.1740    0.9100 h1        1 MOL      0.061039
     59 H27         3.9660   -1.8540    2.4130 h1        1 MOL      0.061039
     60 N6          6.7450   -1.2170    2.4610 n         1 MOL     -0.549224
     61 C19         7.0600   -2.2210    1.4860 c3        1 MOL      0.339040
     62 C20         7.7300   -1.5300    0.2900 c         1 MOL      0.436195
     63 O10         8.3020   -0.4580    0.4970 o         1 MOL     -0.464650
     64 C21         7.7460   -3.4780    2.1300 c3        1 MOL     -0.146770
     65 C22         8.7090   -3.1710    3.2650 c         1 MOL      0.596208
     66 O11         9.2340   -4.2020    3.8580 o         1 MOL     -0.619996
     67 O12         9.1290   -1.9970    3.5230 o         1 MOL     -0.619996
     68 H28         7.4250   -1.1700    3.2210 hn        1 MOL      0.330048
     69 H29         6.1010   -2.5680    1.1120 h1        1 MOL     -0.097872
     70 H30         8.1520   -4.1240    1.3510 hc        1 MOL      0.022614
     71 H31         6.9900   -4.1590    2.5170 hc        1 MOL      0.022614
     72 N7          7.6690   -2.1620   -0.9230 n         1 MOL     -0.341060
     73 C23         8.3990   -1.5780   -2.1090 c3        1 MOL     -0.313500
     74 C24         7.6770   -0.4130   -2.8130 c         1 MOL      0.470998
     75 O13         8.3370    0.3030   -3.5980 o         1 MOL     -0.525826
     76 H32         7.3290   -3.1130   -0.9230 hn        1 MOL      0.249683
     77 H33         8.5650   -2.4340   -2.7670 h1        1 MOL      0.171598
     78 H34         9.3830   -1.2790   -1.7590 h1        1 MOL      0.171598
     79 N8          6.4450   -0.0780   -2.4300 n         1 MOL     -0.054240
     80 C25         5.6820    1.0890   -2.8130 c3        1 MOL     -0.079589
     81 C26         4.8240    1.4400   -1.5560 c         1 MOL      0.264361
     82 O14         4.4900    0.5180   -0.8060 o         1 MOL     -0.404467
     83 C27         4.7930    0.9150   -4.0350 c3        1 MOL      0.249618
     84 C28         3.8420   -0.2320   -3.9730 c3        1 MOL     -0.210294
     85 O15         5.5670    0.8210   -5.1990 oh        1 MOL     -0.572851
     86 H35         5.9880   -0.7800   -1.8650 hn        1 MOL      0.118085
     87 H36         6.3610    1.9240   -2.9700 h1        1 MOL      0.106434
     88 H37         4.1650    1.8030   -4.0890 h1        1 MOL     -0.005524
     89 H38         4.9540    1.0820   -5.9010 ho        1 MOL      0.382479
     90 H39         3.2440   -0.4160   -4.8670 hc        1 MOL      0.056701
     91 H40         4.4300   -1.1140   -3.7540 hc        1 MOL      0.056701
     92 H41         3.0870   -0.0540   -3.2050 hc        1 MOL      0.056701
     93 N9          4.4390    2.7090   -1.3210 n         1 MOL     -0.022128
     94 C29         3.7920    3.1790   -0.0710 c3        1 MOL     -0.616775
     95 C30         2.3510    3.7440   -0.3510 c         1 MOL      0.544105
     96 O16         1.7820    4.4620    0.4670 o         1 MOL     -0.541555
     97 C31         4.6120    4.1380    0.8520 c3        1 MOL      0.270786
     98 C32         4.9810    5.5370    0.1620 c3        1 MOL      0.125652
     99 C33         5.8230    3.3510    1.4160 c3        1 MOL     -0.094695
    100 C34         5.6490    6.6350    0.9960 c3        1 MOL     -0.342843
    101 H42         4.7330    3.4060   -1.9760 hn        1 MOL      0.191398
    102 H43         3.6930    2.3190    0.5860 h1        1 MOL      0.347331
    103 H44         4.0570    4.3550    1.7590 hc        1 MOL      0.003511
    104 H45         4.0710    5.9310   -0.2850 hc        1 MOL     -0.013384
    105 H46         5.6090    5.2970   -0.7030 hc        1 MOL     -0.013384
    106 H47         6.3620    3.0380    0.5170 hc        1 MOL      0.016034
    107 H48         6.4460    4.0430    1.9840 hc        1 MOL      0.016034
    108 H49         5.3580    2.5150    1.9400 hc        1 MOL      0.016034
    109 H50         5.8250    7.4850    0.3310 hc        1 MOL      0.085752
    110 H51         5.1740    6.8620    1.9500 hc        1 MOL      0.085752
    111 H52         6.6010    6.1760    1.2790 hc        1 MOL      0.085752
    112 N10         1.7940    3.5930   -1.5500 n         1 MOL     -0.183293
    113 C35         0.5570    4.2410   -2.0170 c3        1 MOL     -0.161417
    114 C36        -0.7310    3.9680   -1.2260 c         1 MOL      0.461202
    115 O17        -1.6850    4.6490   -1.4700 o         1 MOL     -0.576393
    116 C37         0.3800    3.8500   -3.5070 c3        1 MOL      0.196809
    117 C38         0.5170    2.4070   -3.8610 c3        1 MOL     -0.096802
    118 O18         1.4310    4.6290   -4.0470 oh        1 MOL     -0.629316
    119 H53         2.2040    2.8920   -2.1420 hn        1 MOL      0.161109
    120 H54         0.6930    5.3230   -1.9910 h1        1 MOL      0.123409
    121 H55        -0.5790    4.2230   -3.8430 h1        1 MOL      0.058954
    122 H56         1.1250    5.5320   -4.0250 ho        1 MOL      0.394667
    123 H57         1.5550    2.0760   -3.7320 hc        1 MOL      0.074633
    124 H58        -0.0650    1.9120   -3.0880 hc        1 MOL      0.074633
    125 H59         0.2600    2.2120   -4.9060 hc        1 MOL      0.074633
    126 N11        -0.7860    2.9000   -0.3850 n         1 MOL      0.031744
    127 C39        -1.9230    2.3620    0.4220 c3        1 MOL      0.027092
    128 C40        -3.2010    2.1640   -0.4690 c         1 MOL      0.317275
    129 O19        -3.0530    1.9770   -1.6540 o         1 MOL     -0.456676
    130 C41        -2.1660    3.1960    1.7050 c3        1 MOL      0.269749
    131 C42        -0.9100    3.6060    2.5530 c3        1 MOL     -0.406832
    132 O20        -2.9140    2.4240    2.5420 oh        1 MOL     -0.544419
    133 H60         0.1330    2.4890   -0.2950 hn        1 MOL     -0.064664
    134 H61        -1.7100    1.3710    0.8320 h1        1 MOL      0.124471
    135 H62        -2.6510    4.1020    1.3520 h1        1 MOL     -0.054988
    136 H63        -3.1000    2.9510    3.3250 ho        1 MOL      0.382614
    137 H64        -0.2690    2.7510    2.7760 hc        1 MOL      0.110324
    138 H65        -0.2780    4.3190    2.0230 hc        1 MOL      0.110324
    139 H66        -1.1590    4.0230    3.5290 hc        1 MOL      0.110324
    140 N12        -4.3870    2.1010    0.2210 n         1 MOL     -0.004538
    141 C43        -5.7110    2.3020   -0.3020 c3        1 MOL     -0.054959
    142 C44        -6.2340    1.0800   -1.0950 c         1 MOL      0.439773
    143 O21        -7.4050    1.1250   -1.4190 o         1 MOL     -0.559598
    144 C45        -6.6040    2.9360    0.7810 c3        1 MOL     -0.036906
    145 C46        -5.9930    4.2130    1.4820 c3        1 MOL     -0.221156
    146 C47        -5.6430    5.3980    0.5640 c3        1 MOL      0.141243
    147 C48        -6.8710    5.8380   -0.0960 c3        1 MOL      0.164293
    148 N13        -6.5500    6.8020   -1.1900 n4        1 MOL     -0.483583
    149 H67        -4.3040    2.1450    1.2270 hn        1 MOL      0.125230
    150 H68        -5.5220    3.0880   -1.0330 h1        1 MOL      0.046179
    151 H69        -6.8470    2.2040    1.5440 hc        1 MOL      0.066546
    152 H70        -7.5610    3.1610    0.3060 hc        1 MOL      0.066546
    153 H71        -5.1110    3.8210    1.9880 hc        1 MOL      0.037990
    154 H72        -6.8020    4.5200    2.1490 hc        1 MOL      0.037990
    155 H73        -4.8340    5.0910   -0.1040 hc        1 MOL      0.002882
    156 H74        -5.2860    6.2610    1.1160 hc        1 MOL      0.002882
    157 H75        -7.4230    6.4560    0.6180 hx        1 MOL      0.041815
    158 H76        -7.5370    5.0220   -0.3850 hx        1 MOL      0.041815
    159 H77        -6.3120    7.7070   -0.8220 hn        1 MOL      0.321643
    160 H78        -5.8240    6.4970   -1.8180 hn        1 MOL      0.321643
    161 H79        -7.3570    6.8850   -1.7960 hn        1 MOL      0.321643
    162 N14        -5.4200    0.1080   -1.4700 n         1 MOL      0.055133
    163 C49        -5.7610   -0.9820   -2.4590 c3        1 MOL     -0.461302
    164 C50        -6.9200   -1.8120   -1.9350 c         1 MOL      0.676494
    165 O22        -6.7310   -2.3340   -0.8810 o         1 MOL     -0.505566
    166 C51        -4.5060   -1.8720   -2.7310 c3        1 MOL      0.295764
    167 C52        -4.5750   -2.6940   -4.0370 c3        1 MOL      0.065668
    168 C53        -3.3730   -3.5340   -4.1540 c         1 MOL      0.659991
    169 O23        -3.2350   -4.6040   -3.5330 o         1 MOL     -0.790431
    170 O24        -2.3100   -3.0080   -4.6450 o         1 MOL     -0.790431
    171 H80        -4.4950    0.0550   -1.0730 hn        1 MOL     -0.111876
    172 H81        -6.1470   -0.5920   -3.3980 h1        1 MOL      0.113208
    173 H82        -4.4590   -2.6020   -1.9290 hc        1 MOL      0.021259
    174 H83        -3.5870   -1.2800   -2.6710 hc        1 MOL      0.021259
    175 H84        -4.5750   -2.0350   -4.9020 hc        1 MOL     -0.044453
    176 H85        -5.5070   -3.2570   -4.0060 hc        1 MOL     -0.044453
    177 N15        -8.0680   -2.0250   -2.6180 n         1 MOL     -0.349298
    178 C54        -9.1860   -2.8090   -2.1260 c3        1 MOL     -0.221474
    179 H86       -10.1210   -2.3230   -2.4050 h1        1 MOL      0.106414
    180 H87        -9.1510   -3.8060   -2.5640 h1        1 MOL      0.106414
    181 H88        -9.1270   -2.8860   -1.0400 h1        1 MOL      0.106414
    182 H89        -8.2820   -1.4850   -3.4450 hn        1 MOL      0.251178
    183 Ca1        -0.4820   -4.1760   -3.0360 Ca        1 MOL      1.756090
    184 O25        -1.4300   -6.7510   -2.7990 oh        1 MOL     -0.880482
    185 H90        -1.4480   -7.5490   -3.3120 ho        1 MOL      0.437886
    186 H91        -2.3010   -6.6770   -2.4260 ho        1 MOL      0.437886
    187 O26        -1.8810   -3.0830   -0.7670 oh        1 MOL     -0.880482
    188 H92        -2.5180   -3.5720   -0.2510 ho        1 MOL      0.437886
    189 H93        -2.1410   -2.1630   -0.6700 ho        1 MOL      0.437886
    190 O27         0.1930   -5.1190   -0.5210 oh        1 MOL     -0.880482
    191 H94        -0.1570   -4.7160    0.2780 ho        1 MOL      0.437886
    192 H95         0.0420   -6.0570   -0.4050 ho        1 MOL      0.437886
@<TRIPOS>BOND
     1    1    2 1   
     2    1    4 1   
     3    1    5 1   
     4    1    6 1   
     5    2    3 2   
     6    2    7 1   
     7    7    8 1   
     8    7   15 1   
     9    8    9 1   
    10    8   11 1   
    11    8   16 1   
    12    9   10 2   
    13    9   19 1   
    14   11   12 1   
    15   11   17 1   
    16   11   18 1   
    17   12   13 1   
    18   12   14 1   
    19   19   20 1   
    20   19   28 1   
    21   20   21 1   
    22   20   23 1   
    23   20   29 1   
    24   21   22 2   
    25   21   41 1   
    26   23   24 1   
    27   23   30 1   
    28   23   31 1   
    29   24   25 1   
    30   24   32 1   
    31   24   33 1   
    32   25   26 1   
    33   25   34 1   
    34   25   35 1   
    35   26   27 1   
    36   26   36 1   
    37   26   37 1   
    38   27   38 1   
    39   27   39 1   
    40   27   40 1   
    41   41   42 1   
    42   41   49 1   
    43   42   43 1   
    44   42   45 1   
    45   42   50 1   
    46   43   44 2   
    47   43   53 1   
    48   45   46 1   
    49   45   51 1   
    50   45   52 1   
    51   46   47 1   
    52   46   48 1   
    53   53   54 1   
    54   53   57 1   
    55   54   55 1   
    56   54   58 1   
    57   54   59 1   
    58   55   56 2   
    59   55   60 1   
    60   60   61 1   
    61   60   68 1   
    62   61   62 1   
    63   61   64 1   
    64   61   69 1   
    65   62   63 2   
    66   62   72 1   
    67   64   65 1   
    68   64   70 1   
    69   64   71 1   
    70   65   66 1   
    71   65   67 1   
    72   72   73 1   
    73   72   76 1   
    74   73   74 1   
    75   73   77 1   
    76   73   78 1   
    77   74   75 2   
    78   74   79 1   
    79   79   80 1   
    80   79   86 1   
    81   80   81 1   
    82   80   83 1   
    83   80   87 1   
    84   81   82 2   
    85   81   93 1   
    86   83   84 1   
    87   83   85 1   
    88   83   88 1   
    89   84   90 1   
    90   84   91 1   
    91   84   92 1   
    92   85   89 1   
    93   93   94 1   
    94   93  101 1   
    95   94   95 1   
    96   94   97 1   
    97   94  102 1   
    98   95   96 2   
    99   95  112 1   
   100   97   98 1   
   101   97   99 1   
   102   97  103 1   
   103   98  100 1   
   104   98  104 1   
   105   98  105 1   
   106   99  106 1   
   107   99  107 1   
   108   99  108 1   
   109  100  109 1   
   110  100  110 1   
   111  100  111 1   
   112  112  113 1   
   113  112  119 1   
   114  113  114 1   
   115  113  116 1   
   116  113  120 1   
   117  114  115 2   
   118  114  126 1   
   119  116  117 1   
   120  116  118 1   
   121  116  121 1   
   122  117  123 1   
   123  117  124 1   
   124  117  125 1   
   125  118  122 1   
   126  126  127 1   
   127  126  133 1   
   128  127  128 1   
   129  127  130 1   
   130  127  134 1   
   131  128  129 2   
   132  128  140 1   
   133  130  131 1   
   134  130  132 1   
   135  130  135 1   
   136  131  137 1   
   137  131  138 1   
   138  131  139 1   
   139  132  136 1   
   140  140  141 1   
   141  140  149 1   
   142  141  142 1   
   143  141  144 1   
   144  141  150 1   
   145  142  143 2   
   146  142  162 1   
   147  144  145 1   
   148  144  151 1   
   149  144  152 1   
   150  145  146 1   
   151  145  153 1   
   152  145  154 1   
   153  146  147 1   
   154  146  155 1   
   155  146  156 1   
   156  147  148 1   
   157  147  157 1   
   158  147  158 1   
   159  148  159 1   
   160  148  160 1   
   161  148  161 1   
   162  162  163 1   
   163  162  171 1   
   164  163  164 1   
   165  163  166 1   
   166  163  172 1   
   167  164  165 2   
   168  164  177 1   
   169  166  167 1   
   170  166  173 1   
   171  166  174 1   
   172  167  168 1   
   173  167  175 1   
   174  167  176 1   
   175  168  169 1   
   176  168  170 1   
   177  177  178 1   
   178  177  182 1   
   179  178  179 1   
   180  178  180 1   
   181  178  181 1   
   182  184  185 1   
   183  184  186 1   
   184  187  188 1   
   185  187  189 1   
   186  190  191 1   
   187  190  192 1   
@<TRIPOS>SUBSTRUCTURE
     1 MOL         1 TEMP              0 ****  ****    0 ROOT
