@<TRIPOS>MOLECULE
MOL
  198   191     1     0     0
SMALL
resp


@<TRIPOS>ATOM
      1 C1         -2.6200    3.6410    4.0810 c3        1 MOL     -0.434515
      2 C2         -3.9510    2.8890    4.1560 c         1 MOL      0.649880
      3 O1         -4.1860    1.9550    4.9730 o         1 MOL     -0.558773
      4 H1         -2.2820    3.6790    3.0450 hc        1 MOL      0.123746
      5 H2         -2.7530    4.6550    4.4570 hc        1 MOL      0.123746
      6 H3         -1.8750    3.1230    4.6860 hc        1 MOL      0.123746
      7 N1         -4.9700    3.4820    3.5310 n         1 MOL     -0.479446
      8 C3         -6.3090    2.8880    3.3890 c3        1 MOL      0.064153
      9 C4         -6.3360    1.5650    2.7070 c         1 MOL      0.497619
     10 O2         -5.3720    1.1850    2.0080 o         1 MOL     -0.478668
     11 C5         -7.2680    3.8380    2.7460 c3        1 MOL     -0.096075
     12 C6         -7.0790    4.2310    1.2910 c         1 MOL      0.585080
     13 O3         -7.6810    3.5650    0.4580 o         1 MOL     -0.674823
     14 O4         -6.3690    5.2710    0.9860 o         1 MOL     -0.674823
     15 H4         -4.7820    4.2950    2.9700 hn        1 MOL      0.288215
     16 H5         -6.6290    2.6460    4.3970 h1        1 MOL      0.047072
     17 H6         -7.1840    4.7630    3.3280 hc        1 MOL      0.028578
     18 H7         -8.2800    3.4940    2.9620 hc        1 MOL      0.028578
     19 N2         -7.4770    0.9020    2.7820 n         1 MOL     -0.410661
     20 C7         -7.8120   -0.3870    2.2310 c3        1 MOL     -0.026107
     21 C8         -7.5510   -0.8160    0.7630 c         1 MOL      0.462504
     22 O5         -7.8370   -1.9680    0.4740 o         1 MOL     -0.580270
     23 C9         -9.2790   -0.5790    2.6390 c3        1 MOL     -0.263650
     24 C10       -10.1760    0.3090    1.7450 c3        1 MOL      0.193070
     25 C11       -11.4470   -0.3410    1.1310 c3        1 MOL     -0.277511
     26 C12       -11.0000   -1.2390   -0.0910 c3        1 MOL      0.315783
     27 N3        -12.1810   -1.5330   -1.0010 n4        1 MOL     -0.580026
     28 H8         -8.1510    1.2880    3.4240 hn        1 MOL      0.282522
     29 H9         -7.1900   -1.0710    2.7960 h1        1 MOL      0.119186
     30 H10        -9.4010   -0.2970    3.6780 hc        1 MOL      0.085411
     31 H11        -9.6050   -1.6150    2.5590 hc        1 MOL      0.085411
     32 H12        -9.5680    0.7700    0.9780 hc        1 MOL      0.012163
     33 H13       -10.5030    1.1000    2.4280 hc        1 MOL      0.012163
     34 H14       -12.0340    0.5050    0.7690 hc        1 MOL      0.070165
     35 H15       -11.9470   -0.9860    1.8520 hc        1 MOL      0.070165
     36 H16       -10.5190   -2.0970    0.3680 hx        1 MOL      0.035068
     37 H17       -10.2430   -0.7060   -0.6700 hx        1 MOL      0.035068
     38 H18       -11.9070   -2.0160   -1.8440 hn        1 MOL      0.366834
     39 H19       -12.9300   -2.1100   -0.6310 hn        1 MOL      0.366834
     40 H20       -12.6440   -0.6600   -1.2200 hn        1 MOL      0.366834
     41 N4         -7.0950    0.1210    0.0050 n         1 MOL     -0.017204
     42 C13        -6.6810    0.0470   -1.3480 c3        1 MOL     -0.208640
     43 C14        -5.4890    0.9550   -1.5570 c         1 MOL      0.693774
     44 O6         -5.4360    2.0460   -0.9500 o         1 MOL     -0.569116
     45 C15        -7.7370    0.3530   -2.3110 c3        1 MOL     -0.086667
     46 C16        -8.7280    1.4930   -2.0630 c         1 MOL      0.780916
     47 O7         -9.9350    1.3200   -1.8690 o         1 MOL     -0.733142
     48 O8         -8.3130    2.6650   -2.2550 o         1 MOL     -0.733142
     49 H21        -6.9720    1.0110    0.4760 hn        1 MOL      0.084042
     50 H22        -6.3760   -0.9810   -1.5350 h1        1 MOL      0.168059
     51 H23        -8.3580   -0.5500   -2.3640 hc        1 MOL      0.016734
     52 H24        -7.3370    0.4190   -3.3220 hc        1 MOL      0.016734
     53 N5         -4.5300    0.8810   -2.4940 n         1 MOL     -0.705334
     54 C17        -4.3860   -0.2620   -3.4630 c3        1 MOL      0.057607
     55 C18        -3.7950   -1.5510   -2.7250 c         1 MOL      0.568342
     56 O9         -3.2940   -1.5200   -1.5870 o         1 MOL     -0.532798
     57 H25        -3.7630    1.5260   -2.4100 hn        1 MOL      0.370812
     58 H26        -3.7170   -0.0340   -4.2990 h1        1 MOL      0.067098
     59 H27        -5.3210   -0.5660   -3.9360 h1        1 MOL      0.067098
     60 N6         -3.8790   -2.6620   -3.4430 n         1 MOL     -0.454705
     61 C19        -3.7180   -4.0610   -2.9620 c3        1 MOL     -0.000622
     62 C20        -2.2220   -4.4260   -2.7280 c         1 MOL      0.476078
     63 O10        -1.2790   -3.8820   -3.2830 o         1 MOL     -0.460529
     64 C21        -4.4550   -4.9040   -4.0080 c3        1 MOL     -0.190949
     65 C22        -3.8800   -4.5790   -5.4000 c         1 MOL      0.726925
     66 O11        -4.2940   -3.5370   -5.9790 o         1 MOL     -0.689740
     67 O12        -3.0770   -5.3730   -6.0140 o         1 MOL     -0.689740
     68 H28        -4.0320   -2.6100   -4.4410 hn        1 MOL      0.228447
     69 H29        -4.1890   -4.2170   -1.9890 h1        1 MOL      0.052402
     70 H30        -5.5110   -4.6560   -4.1180 hc        1 MOL      0.025070
     71 H31        -4.3460   -5.9660   -3.7890 hc        1 MOL      0.025070
     72 N7         -2.0970   -5.4960   -1.9320 n         1 MOL     -0.244230
     73 C23        -0.7580   -6.0090   -1.5860 c3        1 MOL     -0.300867
     74 C24        -0.1830   -5.7660   -0.2160 c         1 MOL      0.637430
     75 O13         0.9230   -6.2410    0.0670 o         1 MOL     -0.581052
     76 H32        -2.9370   -5.8570   -1.4910 hn        1 MOL      0.257018
     77 H33        -0.0040   -5.5970   -2.2590 h1        1 MOL      0.142244
     78 H34        -0.8530   -7.0860   -1.7170 h1        1 MOL      0.142244
     79 N8         -0.9280   -5.1230    0.7050 n         1 MOL     -0.363938
     80 C25        -0.3800   -4.7410    2.0390 c3        1 MOL      0.278376
     81 C26        -0.1150   -3.2210    2.0900 c         1 MOL      0.213078
     82 O14        -0.6050   -2.4230    1.2540 o         1 MOL     -0.407451
     83 C27        -1.2980   -5.1600    3.2000 c3        1 MOL      0.135223
     84 C28        -2.6440   -4.5190    3.1890 c3        1 MOL     -0.270555
     85 O15        -1.5870   -6.5900    3.0400 oh        1 MOL     -0.643574
     86 H35        -1.7610   -4.6750    0.3410 hn        1 MOL      0.190008
     87 H36         0.5450   -5.2730    2.2400 h1        1 MOL      0.036736
     88 H37        -0.8640   -5.0400    4.1880 h1        1 MOL      0.043110
     89 H38        -2.1190   -6.8660    3.7930 ho        1 MOL      0.405917
     90 H39        -2.5090   -3.4390    3.1900 hc        1 MOL      0.082259
     91 H40        -3.1560   -4.8660    2.2910 hc        1 MOL      0.082259
     92 H41        -3.3250   -4.8000    3.9950 hc        1 MOL      0.082259
     93 N9          0.7220   -2.7960    3.0650 n         1 MOL     -0.060890
     94 C29         1.1220   -1.3880    3.1820 c3        1 MOL     -0.283759
     95 C30         2.2680   -1.0950    2.2080 c         1 MOL      0.620740
     96 O16         2.4990    0.0130    1.7780 o         1 MOL     -0.553608
     97 C31         1.4080   -1.1520    4.6800 c3        1 MOL      0.308036
     98 C32         0.0860   -1.2800    5.4980 c3        1 MOL      0.002295
     99 C33         2.1350    0.0780    5.2150 c3        1 MOL     -0.320033
    100 C34         0.2030   -1.5430    6.9460 c3        1 MOL     -0.270674
    101 H42         0.9800   -3.4380    3.8040 hn        1 MOL      0.154892
    102 H43         0.2510   -0.7930    2.9380 h1        1 MOL      0.110415
    103 H44         2.0590   -1.9670    4.9880 hc        1 MOL     -0.036698
    104 H45        -0.4520   -2.1350    5.0970 hc        1 MOL      0.020553
    105 H46        -0.5070   -0.3660    5.3840 hc        1 MOL      0.020553
    106 H47         2.5300   -0.1720    6.2000 hc        1 MOL      0.082963
    107 H48         2.9680    0.2840    4.5410 hc        1 MOL      0.082963
    108 H49         1.4630    0.9390    5.2150 hc        1 MOL      0.082963
    109 H50        -0.7300   -1.9200    7.3700 hc        1 MOL      0.066348
    110 H51         0.9490   -2.3130    7.1700 hc        1 MOL      0.066348
    111 H52         0.4860   -0.5710    7.3340 hc        1 MOL      0.066348
    112 N10         3.0770   -2.0800    1.8840 n         1 MOL     -0.412291
    113 C35         4.1080   -2.1090    0.8400 c3        1 MOL      0.032470
    114 C36         5.3420   -2.8460    1.2910 c         1 MOL      0.617663
    115 O17         5.3340   -3.5180    2.3380 o         1 MOL     -0.493786
    116 C37         3.5300   -2.8690   -0.3740 c3        1 MOL      0.343084
    117 C38         2.4500   -2.0970   -1.1450 c3        1 MOL     -0.329779
    118 O18         4.5250   -2.9170   -1.4220 oh        1 MOL     -0.678035
    119 H53         2.8890   -2.9780    2.3190 hn        1 MOL      0.165427
    120 H54         4.2310   -1.0580    0.5680 h1        1 MOL      0.110149
    121 H55         3.0600   -3.8150   -0.0770 h1        1 MOL     -0.006227
    122 H56         4.2200   -3.5160   -2.1050 ho        1 MOL      0.416182
    123 H57         1.6410   -1.9460   -0.4250 hc        1 MOL      0.099479
    124 H58         2.9450   -1.1880   -1.4820 hc        1 MOL      0.099479
    125 H59         2.1110   -2.7570   -1.9490 hc        1 MOL      0.099479
    126 N11         6.4730   -2.5070    0.5470 n         1 MOL     -0.733240
    127 C39         7.8220   -3.0560    0.7540 c3        1 MOL      0.033117
    128 C40         8.8710   -1.9320    0.9590 c         1 MOL      0.802081
    129 O19         9.5820   -2.0020    1.9400 o         1 MOL     -0.585072
    130 C41         8.1440   -3.9040   -0.4560 c3        1 MOL      0.312786
    131 C42         9.6110   -4.4640   -0.3710 c3        1 MOL     -0.231015
    132 O20         7.9810   -3.2180   -1.6570 oh        1 MOL     -0.601084
    133 H60         6.4210   -1.8510   -0.2200 hn        1 MOL      0.359507
    134 H61         7.8730   -3.6550    1.6640 h1        1 MOL      0.080236
    135 H62         7.5310   -4.7880   -0.6040 h1        1 MOL      0.028266
    136 H63         7.1110   -3.4310   -2.0000 ho        1 MOL      0.402074
    137 H64         9.8350   -4.6250    0.6870 hc        1 MOL      0.050558
    138 H65         9.7410   -5.3650   -0.9740 hc        1 MOL      0.050558
    139 H66        10.2670   -3.6120   -0.5840 hc        1 MOL      0.050558
    140 N12         8.9860   -0.9520    0.0330 n         1 MOL     -0.678456
    141 C43        10.1030   -0.0990   -0.1690 c3        1 MOL      0.166784
    142 C44         9.7460    1.2620   -0.7480 c         1 MOL      0.729963
    143 O21         9.2750    1.2660   -1.9190 o         1 MOL     -0.554967
    144 C45        11.1740   -0.7490   -1.0540 c3        1 MOL     -0.347811
    145 C46        12.4410    0.1470   -1.3270 c3        1 MOL      0.194382
    146 C47        13.2590   -0.5090   -2.5120 c3        1 MOL     -0.412913
    147 C48        14.3750    0.4770   -2.8770 c3        1 MOL      0.026793
    148 N13        15.3540    0.7870   -1.8580 n4        1 MOL     -0.186941
    149 H67         8.3870   -1.1600   -0.7500 hn        1 MOL      0.304590
    150 H68        10.6270    0.1100    0.7650 h1        1 MOL      0.047672
    151 H69        10.7700   -1.0690   -2.0070 hc        1 MOL      0.120472
    152 H70        11.4900   -1.6510   -0.5370 hc        1 MOL      0.120472
    153 H71        13.0280    0.2390   -0.4110 hc        1 MOL     -0.001091
    154 H72        12.1700    1.1440   -1.6780 hc        1 MOL     -0.001091
    155 H73        12.5620   -0.4740   -3.3470 hc        1 MOL      0.160844
    156 H74        13.5510   -1.5140   -2.2110 hc        1 MOL      0.160844
    157 H75        14.0530    1.3910   -3.3740 hx        1 MOL      0.104777
    158 H76        14.9420    0.0000   -3.6780 hx        1 MOL      0.104777
    159 H77        14.8760    1.2160   -1.0760 hn        1 MOL      0.237846
    160 H78        15.8210    0.0330   -1.3740 hn        1 MOL      0.237846
    161 H79        16.0800    1.4340   -2.1500 hn        1 MOL      0.237846
    162 N14         9.9720    2.3680    0.0100 n         1 MOL     -0.858944
    163 C49         9.8260    3.7070   -0.5580 c3        1 MOL      0.556599
    164 C50         8.4250    4.3120   -0.7420 c         1 MOL      0.259131
    165 O22         8.1990    4.7730   -1.8250 o         1 MOL     -0.533874
    166 C51        10.8390    4.7050    0.1380 c3        1 MOL      0.074944
    167 C52        10.9900    5.8990   -0.7480 c3        1 MOL     -0.228489
    168 C53        12.0020    6.9370   -0.2410 c         1 MOL      0.688726
    169 O23        11.9000    7.3700    0.9870 o         1 MOL     -0.669026
    170 O24        12.9340    7.3630   -0.9550 o         1 MOL     -0.669026
    171 H80        10.3280    2.2860    0.9430 hn        1 MOL      0.336788
    172 H81        10.2870    3.6000   -1.5380 h1        1 MOL     -0.013277
    173 H82        11.8060    4.2090    0.2340 hc        1 MOL     -0.044832
    174 H83        10.3690    4.9990    1.0770 hc        1 MOL     -0.044832
    175 H84        10.0250    6.3670   -0.5430 hc        1 MOL      0.043172
    176 H85        11.1940    5.5730   -1.7700 hc        1 MOL      0.043172
    177 N15         7.4390    4.3140    0.1690 n         1 MOL     -0.149965
    178 C54         7.3950    3.8830    1.5460 c3        1 MOL     -0.298693
    179 H86         6.3690    3.6340    1.8160 h1        1 MOL      0.116378
    180 H87         8.0270    3.0040    1.6720 h1        1 MOL      0.116378
    181 H88         7.7560    4.6850    2.1910 h1        1 MOL      0.116378
    182 H89         6.5850    4.6690   -0.2280 hn        1 MOL      0.251834
    183 Ca1        -6.5090    4.4530   -1.6450 Ca        1 MOL      1.718682
    184 O25        -3.9030    4.4910   -1.4990 oh        1 MOL     -0.818548
    185 H90        -3.5390    3.9370   -2.2020 ho        1 MOL      0.409288
    186 H91        -3.1620    5.0190   -1.2100 ho        1 MOL      0.409288
    187 O26        -8.0470    6.5420   -0.9680 oh        1 MOL     -0.818548
    188 H92        -8.0280    6.7240   -0.0280 ho        1 MOL      0.409288
    189 H93        -8.3970    7.3380   -1.3590 ho        1 MOL      0.409288
    190 O27        -5.4260    6.8860   -2.1650 oh        1 MOL     -0.818548
    191 H94        -5.2120    7.0140   -3.0870 ho        1 MOL      0.409288
    192 H95        -5.2090    7.7140   -1.7470 ho        1 MOL      0.409288
    193 O28        -7.8530    5.3450   -4.0660 oh        1 MOL     -0.818548
    194 H96        -8.0210    4.5040   -4.4770 ho        1 MOL      0.409288
    195 H97        -8.6580    5.8470   -4.1880 ho        1 MOL      0.409288
    196 O29        -5.7350    3.0450   -3.8360 oh        1 MOL     -0.818548
    197 H98        -6.1060    2.3990   -4.4340 ho        1 MOL      0.409288
    198 H99        -4.8200    3.1160   -4.1130 ho        1 MOL      0.409288
@<TRIPOS>BOND
     1    1    2 1   
     2    1    4 1   
     3    1    5 1   
     4    1    6 1   
     5    2    3 2   
     6    2    7 1   
     7    7    8 1   
     8    7   15 1   
     9    8    9 1   
    10    8   11 1   
    11    8   16 1   
    12    9   10 2   
    13    9   19 1   
    14   11   12 1   
    15   11   17 1   
    16   11   18 1   
    17   12   13 1   
    18   12   14 1   
    19   19   20 1   
    20   19   28 1   
    21   20   21 1   
    22   20   23 1   
    23   20   29 1   
    24   21   22 2   
    25   21   41 1   
    26   23   24 1   
    27   23   30 1   
    28   23   31 1   
    29   24   25 1   
    30   24   32 1   
    31   24   33 1   
    32   25   26 1   
    33   25   34 1   
    34   25   35 1   
    35   26   27 1   
    36   26   36 1   
    37   26   37 1   
    38   27   38 1   
    39   27   39 1   
    40   27   40 1   
    41   41   42 1   
    42   41   49 1   
    43   42   43 1   
    44   42   45 1   
    45   42   50 1   
    46   43   44 2   
    47   43   53 1   
    48   45   46 1   
    49   45   51 1   
    50   45   52 1   
    51   46   47 1   
    52   46   48 1   
    53   53   54 1   
    54   53   57 1   
    55   54   55 1   
    56   54   58 1   
    57   54   59 1   
    58   55   56 2   
    59   55   60 1   
    60   60   61 1   
    61   60   68 1   
    62   61   62 1   
    63   61   64 1   
    64   61   69 1   
    65   62   63 2   
    66   62   72 1   
    67   64   65 1   
    68   64   70 1   
    69   64   71 1   
    70   65   66 1   
    71   65   67 1   
    72   72   73 1   
    73   72   76 1   
    74   73   74 1   
    75   73   77 1   
    76   73   78 1   
    77   74   75 2   
    78   74   79 1   
    79   79   80 1   
    80   79   86 1   
    81   80   81 1   
    82   80   83 1   
    83   80   87 1   
    84   81   82 2   
    85   81   93 1   
    86   83   84 1   
    87   83   85 1   
    88   83   88 1   
    89   84   90 1   
    90   84   91 1   
    91   84   92 1   
    92   85   89 1   
    93   93   94 1   
    94   93  101 1   
    95   94   95 1   
    96   94   97 1   
    97   94  102 1   
    98   95   96 2   
    99   95  112 1   
   100   97   98 1   
   101   97   99 1   
   102   97  103 1   
   103   98  100 1   
   104   98  104 1   
   105   98  105 1   
   106   99  106 1   
   107   99  107 1   
   108   99  108 1   
   109  100  109 1   
   110  100  110 1   
   111  100  111 1   
   112  112  113 1   
   113  112  119 1   
   114  113  114 1   
   115  113  116 1   
   116  113  120 1   
   117  114  115 2   
   118  114  126 1   
   119  116  117 1   
   120  116  118 1   
   121  116  121 1   
   122  117  123 1   
   123  117  124 1   
   124  117  125 1   
   125  118  122 1   
   126  126  127 1   
   127  126  133 1   
   128  127  128 1   
   129  127  130 1   
   130  127  134 1   
   131  128  129 2   
   132  128  140 1   
   133  130  131 1   
   134  130  132 1   
   135  130  135 1   
   136  131  137 1   
   137  131  138 1   
   138  131  139 1   
   139  132  136 1   
   140  140  141 1   
   141  140  149 1   
   142  141  142 1   
   143  141  144 1   
   144  141  150 1   
   145  142  143 2   
   146  142  162 1   
   147  144  145 1   
   148  144  151 1   
   149  144  152 1   
   150  145  146 1   
   151  145  153 1   
   152  145  154 1   
   153  146  147 1   
   154  146  155 1   
   155  146  156 1   
   156  147  148 1   
   157  147  157 1   
   158  147  158 1   
   159  148  159 1   
   160  148  160 1   
   161  148  161 1   
   162  162  163 1   
   163  162  171 1   
   164  163  164 1   
   165  163  166 1   
   166  163  172 1   
   167  164  165 2   
   168  164  177 1   
   169  166  167 1   
   170  166  173 1   
   171  166  174 1   
   172  167  168 1   
   173  167  175 1   
   174  167  176 1   
   175  168  169 1   
   176  168  170 1   
   177  177  178 1   
   178  177  182 1   
   179  178  179 1   
   180  178  180 1   
   181  178  181 1   
   182  184  185 1   
   183  184  186 1   
   184  187  188 1   
   185  187  189 1   
   186  190  191 1   
   187  190  192 1   
   188  193  194 1   
   189  193  195 1   
   190  196  197 1   
   191  196  198 1   
@<TRIPOS>SUBSTRUCTURE
     1 MOL         1 TEMP              0 ****  ****    0 ROOT
