@<TRIPOS>MOLECULE
MOL
  198   191     1     0     0
SMALL
resp


@<TRIPOS>ATOM
      1 C1        -10.9570    5.2050    3.3550 c3        1 MOL     -0.438405
      2 C2        -10.7770    3.7110    3.7470 c         1 MOL      0.704530
      3 O1        -11.0200    3.2990    4.8590 o         1 MOL     -0.564536
      4 H1        -10.2800    5.8200    3.9490 hc        1 MOL      0.112312
      5 H2        -10.7300    5.3330    2.2970 hc        1 MOL      0.112312
      6 H3        -11.9860    5.5110    3.5460 hc        1 MOL      0.112312
      7 N1        -10.2840    2.9690    2.7620 n         1 MOL     -0.406269
      8 C3        -10.0380    1.5810    2.7680 c3        1 MOL     -0.179721
      9 C4         -8.6990    1.2090    2.1150 c         1 MOL      0.650490
     10 O2         -8.3270    1.6390    1.0580 o         1 MOL     -0.655353
     11 C5        -11.1120    0.7390    2.1480 c3        1 MOL      0.065460
     12 C6        -11.6880    1.0940    0.7690 c         1 MOL      0.599116
     13 O3        -11.1570    2.0550    0.1430 o         1 MOL     -0.669560
     14 O4        -12.6870    0.4970    0.3050 o         1 MOL     -0.669560
     15 H4        -10.1430    3.4160    1.8680 hn        1 MOL      0.200451
     16 H5         -9.9160    1.2940    3.8160 h1        1 MOL      0.085085
     17 H6        -11.9100    0.7590    2.8900 hc        1 MOL      0.036055
     18 H7        -10.8160   -0.3070    2.1120 hc        1 MOL      0.036055
     19 N2         -7.9370    0.3210    2.7430 n         1 MOL     -0.519656
     20 C7         -6.8260   -0.3850    2.0480 c3        1 MOL     -0.019470
     21 C8         -7.3900   -1.4210    1.0160 c         1 MOL      0.633347
     22 O5         -6.8190   -1.5050   -0.0860 o         1 MOL     -0.622480
     23 C9         -5.8840   -1.0700    3.0600 c3        1 MOL     -0.355974
     24 C10        -5.1700   -0.0900    3.9830 c3        1 MOL      0.326584
     25 C11        -3.9510   -0.5880    4.8190 c3        1 MOL     -0.304032
     26 C12        -3.6710    0.3650    6.0140 c3        1 MOL      0.109404
     27 N3         -2.8280   -0.2960    7.0190 n4        1 MOL     -0.161316
     28 H8         -7.9810    0.2280    3.7410 hn        1 MOL      0.322937
     29 H9         -6.2520    0.3980    1.5640 h1        1 MOL      0.072319
     30 H10        -5.1610   -1.6470    2.4930 hc        1 MOL      0.130497
     31 H11        -6.4680   -1.8120    3.6020 hc        1 MOL      0.130497
     32 H12        -5.8910    0.2210    4.7370 hc        1 MOL     -0.033218
     33 H13        -4.8720    0.7940    3.4210 hc        1 MOL     -0.033218
     34 H14        -3.1050   -0.6490    4.1310 hc        1 MOL      0.099011
     35 H15        -4.2890   -1.5490    5.1940 hc        1 MOL      0.099011
     36 H16        -4.5760    0.7900    6.4300 hx        1 MOL      0.056512
     37 H17        -3.3140    1.3440    5.7130 hx        1 MOL      0.056512
     38 H18        -2.6330    0.2700    7.8210 hn        1 MOL      0.184125
     39 H19        -3.1340   -1.1930    7.3650 hn        1 MOL      0.184125
     40 H20        -1.8780   -0.4670    6.7090 hn        1 MOL      0.184125
     41 N4         -8.5350   -1.9640    1.1880 n         1 MOL     -0.466573
     42 C13        -9.3500   -2.6300    0.1660 c3        1 MOL      0.093140
     43 C14        -9.5950   -1.7850   -1.1520 c         1 MOL      0.607515
     44 O6         -9.6460   -0.5640   -1.1020 o         1 MOL     -0.580790
     45 C15       -10.6990   -3.1030    0.7230 c3        1 MOL     -0.548286
     46 C16       -10.5000   -3.7990    2.0670 c         1 MOL      0.815629
     47 O7         -9.5930   -4.6550    2.2560 o         1 MOL     -0.683045
     48 O8        -11.2770   -3.5960    3.0340 o         1 MOL     -0.683045
     49 H21        -8.8170   -1.9940    2.1530 hn        1 MOL      0.305907
     50 H22        -8.8610   -3.5760   -0.0620 h1        1 MOL      0.088895
     51 H23       -11.0810   -3.9100    0.0990 hc        1 MOL      0.161182
     52 H24       -11.3590   -2.2460    0.8420 hc        1 MOL      0.161182
     53 N5         -9.7160   -2.3530   -2.3590 n         1 MOL     -0.397307
     54 C17        -9.3460   -3.7480   -2.6170 c3        1 MOL     -0.266819
     55 C18        -7.8190   -3.9010   -2.6920 c         1 MOL      0.536294
     56 O9         -7.4090   -5.1070   -2.5810 o         1 MOL     -0.539822
     57 H25       -10.0430   -1.7590   -3.1040 hn        1 MOL      0.300066
     58 H26        -9.8030   -4.0290   -3.5670 h1        1 MOL      0.165969
     59 H27        -9.7400   -4.3140   -1.7680 h1        1 MOL      0.165969
     60 N6         -7.0200   -2.8300   -2.8780 n         1 MOL     -0.215506
     61 C19        -5.5570   -2.8080   -3.1360 c3        1 MOL     -0.139319
     62 C20        -4.8280   -1.4570   -2.7680 c         1 MOL      0.728621
     63 O10        -5.4310   -0.4450   -3.0170 o         1 MOL     -0.541252
     64 C21        -5.1870   -3.1160   -4.6160 c3        1 MOL     -0.240357
     65 C22        -6.0310   -2.5150   -5.6810 c         1 MOL      0.723561
     66 O11        -7.1100   -3.0470   -6.0440 o         1 MOL     -0.658233
     67 O12        -5.5800   -1.5230   -6.3030 o         1 MOL     -0.658233
     68 H28        -7.4820   -1.9590   -2.6930 hn        1 MOL      0.180928
     69 H29        -5.2030   -3.5750   -2.4520 h1        1 MOL      0.083798
     70 H30        -5.3900   -4.1550   -4.8610 hc        1 MOL      0.080827
     71 H31        -4.1120   -2.9440   -4.6910 hc        1 MOL      0.080827
     72 N7         -3.5930   -1.4630   -2.2520 n         1 MOL     -0.597916
     73 C23        -2.7240   -0.2230   -2.1340 c3        1 MOL      0.137196
     74 C24        -1.5890   -0.3730   -1.1280 c         1 MOL      0.657436
     75 O13        -1.5700   -1.3530   -0.4050 o         1 MOL     -0.546952
     76 H32        -3.2170   -2.3710   -2.0390 hn        1 MOL      0.315754
     77 H33        -3.4790    0.5320   -1.8820 h1        1 MOL      0.018801
     78 H34        -2.3070    0.0100   -3.1130 h1        1 MOL      0.018801
     79 N8         -0.6450    0.5580   -1.1740 n         1 MOL     -0.680606
     80 C25         0.4100    0.7980   -0.1820 c3        1 MOL      0.287162
     81 C26         1.6420    1.3960   -0.8000 c         1 MOL      0.572157
     82 O14         1.6540    1.7640   -1.9740 o         1 MOL     -0.505309
     83 C27        -0.0320    1.6810    0.9800 c3        1 MOL      0.340950
     84 C28        -0.4440    3.1220    0.6870 c3        1 MOL     -0.356929
     85 O15        -1.1440    1.0520    1.5840 oh        1 MOL     -0.580631
     86 H35        -0.7990    1.3170   -1.8360 hn        1 MOL      0.294433
     87 H36         0.7420   -0.1640    0.2240 h1        1 MOL      0.003933
     88 H37         0.8020    1.7230    1.6800 h1        1 MOL     -0.059253
     89 H38        -0.7770    0.3820    2.1740 ho        1 MOL      0.354628
     90 H39        -1.4260    3.2330    0.2340 hc        1 MOL      0.095379
     91 H40        -0.3910    3.6780    1.6270 hc        1 MOL      0.095379
     92 H41         0.2940    3.5310   -0.0020 hc        1 MOL      0.095379
     93 N9          2.6680    1.5850    0.0200 n         1 MOL     -0.675912
     94 C29         3.9190    2.2330   -0.4770 c3        1 MOL      0.205062
     95 C30         4.9510    1.2310   -0.9710 c         1 MOL      0.434550
     96 O16         5.5660    1.3640   -2.0450 o         1 MOL     -0.501013
     97 C31         4.4430    3.2560    0.5210 c3        1 MOL      0.183483
     98 C32         3.2740    4.0350    1.2080 c3        1 MOL     -0.045679
     99 C33         5.4440    4.1940   -0.2130 c3        1 MOL     -0.384051
    100 C34         3.7380    5.0910    2.2520 c3        1 MOL     -0.289190
    101 H42         2.5870    1.6260    1.0210 hn        1 MOL      0.293358
    102 H43         3.7020    2.7740   -1.3910 h1        1 MOL      0.035864
    103 H44         4.9810    2.6680    1.2600 hc        1 MOL     -0.028284
    104 H45         2.7300    3.3380    1.8390 hc        1 MOL      0.051657
    105 H46         2.7140    4.5230    0.4010 hc        1 MOL      0.051657
    106 H47         5.8810    4.8210    0.5630 hc        1 MOL      0.110386
    107 H48         6.1480    3.6360   -0.8280 hc        1 MOL      0.110386
    108 H49         4.9180    4.8550   -0.9080 hc        1 MOL      0.110386
    109 H50         4.4110    5.7760    1.7320 hc        1 MOL      0.078569
    110 H51         2.8800    5.7050    2.5080 hc        1 MOL      0.078569
    111 H52         4.1790    4.7260    3.1800 hc        1 MOL      0.078569
    112 N10         5.0860    0.1470   -0.1930 n         1 MOL     -0.375186
    113 C35         5.9000   -1.0530   -0.4610 c3        1 MOL     -0.022966
    114 C36         6.5430   -1.5930    0.8050 c         1 MOL      0.485695
    115 O17         6.0240   -1.4640    1.9360 o         1 MOL     -0.519569
    116 C37         5.0890   -2.2200   -1.1140 c3        1 MOL      0.428882
    117 C38         4.0710   -1.7770   -2.1280 c3        1 MOL     -0.354850
    118 O18         5.9880   -3.0190   -1.8280 oh        1 MOL     -0.636467
    119 H53         4.5550    0.1010    0.6640 hn        1 MOL      0.208544
    120 H54         6.6950   -0.7590   -1.1390 h1        1 MOL      0.104242
    121 H55         4.5860   -2.7990   -0.3490 h1        1 MOL     -0.028407
    122 H56         6.0320   -3.8690   -1.3860 ho        1 MOL      0.402698
    123 H57         4.4550   -1.1200   -2.9110 hc        1 MOL      0.113239
    124 H58         3.5760   -2.6140   -2.6170 hc        1 MOL      0.113239
    125 H59         3.2880   -1.2320   -1.5980 hc        1 MOL      0.113239
    126 N11         7.7030   -2.1400    0.5950 n         1 MOL     -0.455427
    127 C39         8.5270   -2.7120    1.7270 c3        1 MOL     -0.033046
    128 C40         9.8380   -2.0360    2.1690 c         1 MOL      0.649205
    129 O19        10.1370   -1.9820    3.3310 o         1 MOL     -0.563711
    130 C41         8.6820   -4.2370    1.5440 c3        1 MOL      0.362446
    131 C42         9.5590   -4.5070    0.3640 c3        1 MOL     -0.251814
    132 O20         7.4190   -4.8510    1.3270 oh        1 MOL     -0.597259
    133 H60         8.0720   -2.1980   -0.3430 hn        1 MOL      0.306324
    134 H61         7.9560   -2.7080    2.6530 h1        1 MOL      0.056871
    135 H62         9.1510   -4.6940    2.4160 h1        1 MOL     -0.023017
    136 H63         7.0880   -4.8800    2.2300 ho        1 MOL      0.390810
    137 H64         9.6340   -5.5860    0.1970 hc        1 MOL      0.073719
    138 H65         9.0280   -4.1110   -0.4990 hc        1 MOL      0.073719
    139 H66        10.5940   -4.2000    0.5650 hc        1 MOL      0.073719
    140 N12        10.6490   -1.6310    1.1970 n         1 MOL     -0.421782
    141 C43        12.0220   -1.1000    1.2390 c3        1 MOL     -0.145659
    142 C44        12.3840   -0.4420   -0.1330 c         1 MOL      0.653470
    143 O21        12.2270   -1.1650   -1.1450 o         1 MOL     -0.545755
    144 C45        13.0510   -2.2330    1.6060 c3        1 MOL     -0.020089
    145 C46        14.4630   -1.6260    1.9060 c3        1 MOL      0.051523
    146 C47        15.5870   -2.4640    2.4880 c3        1 MOL     -0.121008
    147 C48        15.8560   -3.7150    1.6540 c3        1 MOL      0.072153
    148 N13        16.6150   -4.5910    2.5590 n4        1 MOL     -0.349095
    149 H67        10.2860   -1.7740    0.2630 hn        1 MOL      0.224697
    150 H68        12.2070   -0.4860    2.1210 h1        1 MOL      0.115862
    151 H69        13.0940   -2.9180    0.7560 hc        1 MOL      0.016312
    152 H70        12.7070   -2.8580    2.4360 hc        1 MOL      0.016312
    153 H71        14.3270   -0.7510    2.5540 hc        1 MOL      0.026571
    154 H72        14.7830   -1.2600    0.9290 hc        1 MOL      0.026571
    155 H73        15.3780   -2.7310    3.5240 hc        1 MOL      0.054463
    156 H74        16.5030   -1.8810    2.3500 hc        1 MOL      0.054463
    157 H75        16.4040   -3.3600    0.7710 hx        1 MOL      0.083337
    158 H76        14.9570   -4.2240    1.3080 hx        1 MOL      0.083337
    159 H77        17.3840   -4.0510    2.9190 hn        1 MOL      0.282138
    160 H78        15.9320   -4.7820    3.2770 hn        1 MOL      0.282138
    161 H79        16.9190   -5.4560    2.1290 hn        1 MOL      0.282138
    162 N14        12.8930    0.7400   -0.2230 n         1 MOL     -0.554574
    163 C49        13.0060    1.5110   -1.5090 c3        1 MOL      0.308311
    164 C50        11.6260    2.0990   -2.0260 c         1 MOL      0.338341
    165 O22        11.3340    1.9060   -3.2120 o         1 MOL     -0.522508
    166 C51        14.0320    2.6420   -1.3160 c3        1 MOL     -0.153467
    167 C52        14.3470    3.4850   -2.5750 c3        1 MOL     -0.126304
    168 C53        15.3800    4.5950   -2.2040 c         1 MOL      0.651319
    169 O23        15.8180    4.6340   -1.0330 o         1 MOL     -0.646555
    170 O24        15.7100    5.4080   -3.1230 o         1 MOL     -0.646555
    171 H80        13.1550    1.1930    0.6410 hn        1 MOL      0.262534
    172 H81        13.3400    0.8630   -2.3170 h1        1 MOL      0.033914
    173 H82        14.9890    2.2380   -0.9860 hc        1 MOL      0.049023
    174 H83        13.7470    3.2610   -0.4610 hc        1 MOL      0.049023
    175 H84        13.4530    3.9960   -2.9470 hc        1 MOL      0.049076
    176 H85        14.6960    3.0160   -3.4840 hc        1 MOL      0.049076
    177 N15        10.7330    2.7230   -1.3020 n         1 MOL     -0.287016
    178 C54        10.8830    3.3290    0.0340 c3        1 MOL     -0.054233
    179 H86        10.3590    4.2850    0.0600 h1        1 MOL      0.052226
    180 H87        10.4580    2.6630    0.7860 h1        1 MOL      0.052226
    181 H88        11.9400    3.4890    0.2450 h1        1 MOL      0.052226
    182 H89         9.7980    2.7780   -1.6720 hn        1 MOL      0.287730
    183 Ca1        -9.1190    2.0690   -1.4170 Ca        1 MOL      1.795746
    184 O25        -9.8700    4.5860   -2.1880 oh        1 MOL     -0.875326
    185 H90       -10.3760    4.8060   -2.9790 ho        1 MOL      0.432980
    186 H91        -9.3230    5.3570   -2.0240 ho        1 MOL      0.432980
    187 O26       -11.0670    1.4180   -3.0220 oh        1 MOL     -0.875326
    188 H92       -11.9000    1.0100   -2.7920 ho        1 MOL      0.432980
    189 H93       -11.2380    1.8330   -3.8660 ho        1 MOL      0.432980
    190 O27        -7.6800    3.0720   -3.5650 oh        1 MOL     -0.875326
    191 H94        -7.5550    3.9370   -3.9400 ho        1 MOL      0.432980
    192 H95        -6.7990    2.7060   -3.5040 ho        1 MOL      0.432980
    193 O28        -7.4550    4.0170   -0.1690 oh        1 MOL     -0.875326
    194 H96        -6.8120    3.5810    0.3850 ho        1 MOL      0.432980
    195 H97        -7.2840    4.9480   -0.0540 ho        1 MOL      0.432980
    196 O29        -6.5940    1.4410   -1.3450 oh        1 MOL     -0.875326
    197 H98        -6.0370    1.9930   -0.7940 ho        1 MOL      0.432980
    198 H99        -5.9950    0.7920   -1.7130 ho        1 MOL      0.432980
@<TRIPOS>BOND
     1    1    2 1   
     2    1    4 1   
     3    1    5 1   
     4    1    6 1   
     5    2    3 2   
     6    2    7 1   
     7    7    8 1   
     8    7   15 1   
     9    8    9 1   
    10    8   11 1   
    11    8   16 1   
    12    9   10 2   
    13    9   19 1   
    14   11   12 1   
    15   11   17 1   
    16   11   18 1   
    17   12   13 1   
    18   12   14 1   
    19   19   20 1   
    20   19   28 1   
    21   20   21 1   
    22   20   23 1   
    23   20   29 1   
    24   21   22 2   
    25   21   41 1   
    26   23   24 1   
    27   23   30 1   
    28   23   31 1   
    29   24   25 1   
    30   24   32 1   
    31   24   33 1   
    32   25   26 1   
    33   25   34 1   
    34   25   35 1   
    35   26   27 1   
    36   26   36 1   
    37   26   37 1   
    38   27   38 1   
    39   27   39 1   
    40   27   40 1   
    41   41   42 1   
    42   41   49 1   
    43   42   43 1   
    44   42   45 1   
    45   42   50 1   
    46   43   44 2   
    47   43   53 1   
    48   45   46 1   
    49   45   51 1   
    50   45   52 1   
    51   46   47 1   
    52   46   48 1   
    53   53   54 1   
    54   53   57 1   
    55   54   55 1   
    56   54   58 1   
    57   54   59 1   
    58   55   56 2   
    59   55   60 1   
    60   60   61 1   
    61   60   68 1   
    62   61   62 1   
    63   61   64 1   
    64   61   69 1   
    65   62   63 2   
    66   62   72 1   
    67   64   65 1   
    68   64   70 1   
    69   64   71 1   
    70   65   66 1   
    71   65   67 1   
    72   72   73 1   
    73   72   76 1   
    74   73   74 1   
    75   73   77 1   
    76   73   78 1   
    77   74   75 2   
    78   74   79 1   
    79   79   80 1   
    80   79   86 1   
    81   80   81 1   
    82   80   83 1   
    83   80   87 1   
    84   81   82 2   
    85   81   93 1   
    86   83   84 1   
    87   83   85 1   
    88   83   88 1   
    89   84   90 1   
    90   84   91 1   
    91   84   92 1   
    92   85   89 1   
    93   93   94 1   
    94   93  101 1   
    95   94   95 1   
    96   94   97 1   
    97   94  102 1   
    98   95   96 2   
    99   95  112 1   
   100   97   98 1   
   101   97   99 1   
   102   97  103 1   
   103   98  100 1   
   104   98  104 1   
   105   98  105 1   
   106   99  106 1   
   107   99  107 1   
   108   99  108 1   
   109  100  109 1   
   110  100  110 1   
   111  100  111 1   
   112  112  113 1   
   113  112  119 1   
   114  113  114 1   
   115  113  116 1   
   116  113  120 1   
   117  114  115 2   
   118  114  126 1   
   119  116  117 1   
   120  116  118 1   
   121  116  121 1   
   122  117  123 1   
   123  117  124 1   
   124  117  125 1   
   125  118  122 1   
   126  126  127 1   
   127  126  133 1   
   128  127  128 1   
   129  127  130 1   
   130  127  134 1   
   131  128  129 2   
   132  128  140 1   
   133  130  131 1   
   134  130  132 1   
   135  130  135 1   
   136  131  137 1   
   137  131  138 1   
   138  131  139 1   
   139  132  136 1   
   140  140  141 1   
   141  140  149 1   
   142  141  142 1   
   143  141  144 1   
   144  141  150 1   
   145  142  143 2   
   146  142  162 1   
   147  144  145 1   
   148  144  151 1   
   149  144  152 1   
   150  145  146 1   
   151  145  153 1   
   152  145  154 1   
   153  146  147 1   
   154  146  155 1   
   155  146  156 1   
   156  147  148 1   
   157  147  157 1   
   158  147  158 1   
   159  148  159 1   
   160  148  160 1   
   161  148  161 1   
   162  162  163 1   
   163  162  171 1   
   164  163  164 1   
   165  163  166 1   
   166  163  172 1   
   167  164  165 2   
   168  164  177 1   
   169  166  167 1   
   170  166  173 1   
   171  166  174 1   
   172  167  168 1   
   173  167  175 1   
   174  167  176 1   
   175  168  169 1   
   176  168  170 1   
   177  177  178 1   
   178  177  182 1   
   179  178  179 1   
   180  178  180 1   
   181  178  181 1   
   182  184  185 1   
   183  184  186 1   
   184  187  188 1   
   185  187  189 1   
   186  190  191 1   
   187  190  192 1   
   188  193  194 1   
   189  193  195 1   
   190  196  197 1   
   191  196  198 1   
@<TRIPOS>SUBSTRUCTURE
     1 MOL         1 TEMP              0 ****  ****    0 ROOT
