@<TRIPOS>MOLECULE
MOL
  198   191     1     0     0
SMALL
resp


@<TRIPOS>ATOM
      1 C1         -4.4250    8.3220    4.1050 c3        1 MOL     -0.487824
      2 C2         -3.6440    7.3030    3.1700 c         1 MOL      0.810568
      3 O1         -3.8810    6.1540    3.1780 o         1 MOL     -0.568262
      4 H1         -3.7080    8.9180    4.6700 hc        1 MOL      0.122255
      5 H2         -5.0400    8.9800    3.4920 hc        1 MOL      0.122255
      6 H3         -5.0610    7.7680    4.7950 hc        1 MOL      0.122255
      7 N1         -2.5260    7.7070    2.4750 n         1 MOL     -0.582578
      8 C3         -1.7090    6.7980    1.5410 c3        1 MOL      0.096368
      9 C4         -2.5430    5.9990    0.5010 c         1 MOL      0.517211
     10 O2         -2.0420    5.0570   -0.1850 o         1 MOL     -0.520393
     11 C5         -0.6410    5.9810    2.2960 c3        1 MOL     -0.396576
     12 C6          0.2730    6.9410    3.1090 c         1 MOL      0.793946
     13 O3          0.8610    6.5890    4.1430 o         1 MOL     -0.696628
     14 O4          0.4310    8.1010    2.5870 o         1 MOL     -0.696628
     15 H4         -2.2050    8.6600    2.5820 hn        1 MOL      0.271259
     16 H5         -1.0820    7.4300    0.9220 h1        1 MOL      0.051380
     17 H6          0.0510    5.5970    1.5390 hc        1 MOL      0.120655
     18 H7         -1.0320    5.2720    3.0310 hc        1 MOL      0.120655
     19 N2         -3.7650    6.5540    0.2590 n         1 MOL     -0.325717
     20 C7         -4.8000    6.0900   -0.6770 c3        1 MOL      0.072343
     21 C8         -5.3820    4.6520   -0.4390 c         1 MOL      0.450817
     22 O5         -6.5910    4.5010   -0.2290 o         1 MOL     -0.566925
     23 C9         -4.3190    6.2020   -2.1360 c3        1 MOL     -0.188323
     24 C10        -4.1350    7.7360   -2.6060 c3        1 MOL      0.212585
     25 C11        -3.9740    7.6950   -4.1490 c3        1 MOL     -0.284061
     26 C12        -2.5910    7.0530   -4.4550 c3        1 MOL     -0.017571
     27 N3         -1.4510    7.9410   -4.4170 n4        1 MOL     -0.375661
     28 H8         -4.0080    7.4120    0.7200 hn        1 MOL      0.173794
     29 H9         -5.6480    6.7650   -0.5810 h1        1 MOL      0.077092
     30 H10        -5.0020    5.7530   -2.8610 hc        1 MOL      0.069897
     31 H11        -3.3620    5.6840   -2.1710 hc        1 MOL      0.069897
     32 H12        -3.2310    8.1340   -2.1500 hc        1 MOL     -0.041611
     33 H13        -5.0100    8.3270   -2.3160 hc        1 MOL     -0.041611
     34 H14        -3.8820    8.7420   -4.4260 hc        1 MOL      0.115195
     35 H15        -4.7930    7.0800   -4.5250 hc        1 MOL      0.115195
     36 H16        -2.8030    6.5850   -5.4140 hx        1 MOL      0.113025
     37 H17        -2.3630    6.2110   -3.8000 hx        1 MOL      0.113025
     38 H18        -1.5000    8.5890   -3.6510 hn        1 MOL      0.320501
     39 H19        -0.5530    7.4930   -4.3430 hn        1 MOL      0.320501
     40 H20        -1.5160    8.5470   -5.2270 hn        1 MOL      0.320501
     41 N4         -4.4980    3.6830   -0.5350 n         1 MOL     -0.372381
     42 C13        -4.8670    2.2130   -0.6460 c3        1 MOL      0.300684
     43 C14        -4.2740    1.3090    0.4100 c         1 MOL      0.354251
     44 O6         -3.0230    1.4210    0.5660 o         1 MOL     -0.524414
     45 C15        -4.2640    1.7990   -2.0690 c3        1 MOL     -0.475253
     46 C16        -4.5570    0.3320   -2.5480 c         1 MOL      0.810122
     47 O7         -3.9520   -0.1190   -3.5380 o         1 MOL     -0.717948
     48 O8         -5.4200   -0.3580   -2.0070 o         1 MOL     -0.717948
     49 H21        -3.5400    3.9790   -0.5900 hn        1 MOL      0.279348
     50 H22        -5.9130    1.9840   -0.8480 h1        1 MOL      0.085648
     51 H23        -3.1970    2.0350   -2.0630 hc        1 MOL      0.103030
     52 H24        -4.6950    2.3910   -2.8840 hc        1 MOL      0.103030
     53 N5         -4.9550    0.3970    1.1200 n         1 MOL     -0.260187
     54 C17        -6.3910    0.0940    1.1000 c3        1 MOL     -0.125781
     55 C18        -6.5680   -1.4300    0.9660 c         1 MOL      0.475586
     56 O9         -6.4130   -2.1690    1.9230 o         1 MOL     -0.504320
     57 H25        -4.3720   -0.2040    1.6810 hn        1 MOL      0.268545
     58 H26        -6.8720    0.5660    0.2460 h1        1 MOL      0.085332
     59 H27        -6.8490    0.4540    2.0100 h1        1 MOL      0.085332
     60 N6         -7.1290   -1.9040   -0.1670 n         1 MOL     -0.262247
     61 C19        -7.5460   -3.3230   -0.2880 c3        1 MOL     -0.044292
     62 C20        -6.3320   -4.2920   -0.2980 c         1 MOL      0.352305
     63 O10        -5.2720   -4.0200   -0.8550 o         1 MOL     -0.453297
     64 C21        -8.5150   -3.5330   -1.4280 c3        1 MOL     -0.198404
     65 C22        -8.1860   -2.5620   -2.5580 c         1 MOL      0.532646
     66 O11        -7.0490   -2.7870   -3.0540 o         1 MOL     -0.616701
     67 O12        -9.0180   -1.6120   -2.9190 o         1 MOL     -0.616701
     68 H28        -7.1240   -1.2600   -0.9540 hn        1 MOL      0.294447
     69 H29        -8.1070   -3.5070    0.6330 h1        1 MOL      0.089251
     70 H30        -9.4960   -3.3070   -0.9930 hc        1 MOL      0.063390
     71 H31        -8.4000   -4.5770   -1.7180 hc        1 MOL      0.063390
     72 N7         -6.3680   -5.4400    0.4090 n         1 MOL     -0.205349
     73 C23        -5.2100   -6.3010    0.6320 c3        1 MOL     -0.093357
     74 C24        -4.1080   -5.7470    1.4720 c         1 MOL      0.491628
     75 O13        -2.9930   -6.2480    1.3190 o         1 MOL     -0.578214
     76 H32        -7.2460   -5.8360    0.6890 hn        1 MOL      0.241208
     77 H33        -4.6450   -6.4370   -0.2940 h1        1 MOL      0.066517
     78 H34        -5.4830   -7.2530    1.0850 h1        1 MOL      0.066517
     79 N8         -4.2840   -4.6640    2.2410 n         1 MOL     -0.179226
     80 C25        -3.2950   -3.9840    3.1300 c3        1 MOL      0.134306
     81 C26        -2.5910   -2.8550    2.4030 c         1 MOL      0.165096
     82 O14        -3.2330   -2.1470    1.6040 o         1 MOL     -0.412359
     83 C27        -3.7330   -3.4760    4.5100 c3        1 MOL      0.193525
     84 C28        -4.6950   -2.2430    4.5010 c3        1 MOL     -0.127281
     85 O15        -4.4560   -4.5520    5.0660 oh        1 MOL     -0.631004
     86 H35        -5.2000   -4.2440    2.2130 hn        1 MOL      0.127346
     87 H36        -2.5120   -4.7260    3.3090 h1        1 MOL      0.074331
     88 H37        -2.9070   -3.2030    5.1600 h1        1 MOL      0.037044
     89 H38        -4.9180   -4.1490    5.8070 ho        1 MOL      0.402686
     90 H39        -4.7800   -1.8240    5.5040 hc        1 MOL      0.048644
     91 H40        -4.3240   -1.4210    3.8820 hc        1 MOL      0.048644
     92 H41        -5.7280   -2.4970    4.2710 hc        1 MOL      0.048644
     93 N9         -1.3100   -2.6130    2.7380 n         1 MOL     -0.180558
     94 C29        -0.5280   -1.4280    2.2630 c3        1 MOL     -0.081619
     95 C30         0.6970   -1.6830    1.3920 c         1 MOL      0.410759
     96 O16         1.1610   -0.6360    0.8630 o         1 MOL     -0.506485
     97 C31        -0.2220   -0.4650    3.4230 c3        1 MOL      0.217925
     98 C32         0.5440   -1.1910    4.5610 c3        1 MOL      0.186683
     99 C33        -1.5840    0.1170    3.8930 c3        1 MOL     -0.217598
    100 C34         1.2990   -0.1950    5.4440 c3        1 MOL     -0.285114
    101 H42        -0.7920   -3.2740    3.2960 hn        1 MOL      0.197359
    102 H43        -1.2290   -0.8890    1.6230 h1        1 MOL      0.094841
    103 H44         0.3510    0.4100    3.0840 hc        1 MOL      0.036069
    104 H45         1.2700   -1.8850    4.1310 hc        1 MOL     -0.064899
    105 H46        -0.1710   -1.7930    5.1290 hc        1 MOL     -0.064899
    106 H47        -2.2190   -0.5630    4.4520 hc        1 MOL      0.045908
    107 H48        -1.2410    0.8900    4.5860 hc        1 MOL      0.045908
    108 H49        -2.0230    0.6990    3.0840 hc        1 MOL      0.045908
    109 H50         1.8460    0.5150    4.8190 hc        1 MOL      0.073578
    110 H51         0.5180    0.3980    5.9140 hc        1 MOL      0.073578
    111 H52         1.9840   -0.6790    6.1410 hc        1 MOL      0.073578
    112 N10         1.1740   -2.9170    1.1910 n         1 MOL     -0.359603
    113 C35         2.2280   -3.2300    0.2270 c3        1 MOL     -0.011202
    114 C36         3.4470   -3.8160    0.8510 c         1 MOL      0.736818
    115 O17         3.4220   -4.4680    1.9060 o         1 MOL     -0.585095
    116 C37         1.7170   -4.0830   -0.9500 c3        1 MOL      0.257322
    117 C38         0.5770   -3.5450   -1.7390 c3        1 MOL     -0.308923
    118 O18         2.7440   -4.3530   -1.8940 oh        1 MOL     -0.657943
    119 H53         0.7580   -3.7090    1.6630 hn        1 MOL      0.249240
    120 H54         2.5740   -2.3570   -0.3350 h1        1 MOL      0.096048
    121 H55         1.4820   -5.0530   -0.5070 h1        1 MOL      0.004457
    122 H56         2.3560   -4.8660   -2.6040 ho        1 MOL      0.408261
    123 H57         0.7650   -2.4950   -1.9350 hc        1 MOL      0.093039
    124 H58         0.3430   -4.0500   -2.6730 hc        1 MOL      0.093039
    125 H59        -0.3090   -3.6080   -1.0980 hc        1 MOL      0.093039
    126 N11         4.6090   -3.6740    0.2590 n         1 MOL     -0.744280
    127 C39         5.9050   -4.1450    0.7960 c3        1 MOL      0.114888
    128 C40         6.9570   -3.0690    0.9380 c         1 MOL      0.582155
    129 O19         7.7020   -3.0780    1.9100 o         1 MOL     -0.521344
    130 C41         6.3970   -5.3060    0.0090 c3        1 MOL      0.320717
    131 C42         7.6880   -5.7630    0.5460 c3        1 MOL     -0.244772
    132 O20         6.5290   -4.9470   -1.3720 oh        1 MOL     -0.640261
    133 H60         4.5390   -3.1820   -0.6200 hn        1 MOL      0.374046
    134 H61         5.7710   -4.5790    1.7900 h1        1 MOL      0.086315
    135 H62         5.7300   -6.1530    0.1670 h1        1 MOL      0.043913
    136 H63         6.1070   -5.5910   -1.9490 ho        1 MOL      0.404229
    137 H64         7.8910   -5.5160    1.5890 hc        1 MOL      0.058183
    138 H65         7.5340   -6.8390    0.4530 hc        1 MOL      0.058183
    139 H66         8.5200   -5.4200   -0.0750 hc        1 MOL      0.058183
    140 N12         7.2900   -2.2910   -0.2130 n         1 MOL     -0.533355
    141 C43         8.3830   -1.2540   -0.2030 c3        1 MOL      0.170396
    142 C44         8.0010   -0.0090   -0.9810 c         1 MOL      0.460923
    143 O21         7.2330   -0.1880   -1.9340 o         1 MOL     -0.490804
    144 C45         9.7300   -1.8480   -0.6970 c3        1 MOL     -0.332320
    145 C46        10.9790   -1.3260   -0.1060 c3        1 MOL      0.400403
    146 C47        12.1450   -2.0190   -0.7440 c3        1 MOL     -0.113940
    147 C48        13.5030   -1.3180   -0.3260 c3        1 MOL      0.149486
    148 N13        14.6790   -1.9780   -0.9770 n4        1 MOL     -0.207351
    149 H67         6.6780   -2.1780   -0.9950 hn        1 MOL      0.294535
    150 H68         8.4850   -0.8910    0.8180 h1        1 MOL      0.031177
    151 H69         9.7340   -1.8090   -1.7840 hc        1 MOL      0.104724
    152 H70         9.6690   -2.8850   -0.3580 hc        1 MOL      0.104724
    153 H71        10.9430   -1.3610    0.9780 hc        1 MOL     -0.080936
    154 H72        10.9510   -0.2820   -0.4320 hc        1 MOL     -0.080936
    155 H73        12.0510   -1.9760   -1.8350 hc        1 MOL      0.014686
    156 H74        12.1330   -3.0770   -0.4940 hc        1 MOL      0.014686
    157 H75        13.6200   -1.4880    0.7480 hx        1 MOL      0.032403
    158 H76        13.3290   -0.2490   -0.3980 hx        1 MOL      0.032403
    159 H77        15.5620   -1.5130   -0.7910 hn        1 MOL      0.238237
    160 H78        14.8390   -2.9540   -0.7820 hn        1 MOL      0.238237
    161 H79        14.5500   -1.9540   -1.9790 hn        1 MOL      0.238237
    162 N14         8.2950    1.2190   -0.4540 n         1 MOL     -0.307011
    163 C49         7.9670    2.3920   -1.3000 c3        1 MOL      0.218811
    164 C50         6.4460    2.5770   -1.5450 c         1 MOL      0.359750
    165 O22         6.1440    2.7960   -2.7310 o         1 MOL     -0.533584
    166 C51         8.7480    3.6590   -0.8670 c3        1 MOL      0.003895
    167 C52        10.2140    3.5160   -1.3240 c3        1 MOL     -0.210187
    168 C53        11.1020    4.6250   -0.8000 c         1 MOL      0.667590
    169 O23        10.6410    5.7680   -0.8210 o         1 MOL     -0.660772
    170 O24        12.1840    4.3810   -0.1920 o         1 MOL     -0.660772
    171 H80         8.7410    1.3630    0.4480 hn        1 MOL      0.221110
    172 H81         8.3010    2.1850   -2.3170 h1        1 MOL      0.012245
    173 H82         8.6810    3.7780    0.2190 hc        1 MOL      0.050085
    174 H83         8.2720    4.5500   -1.2770 hc        1 MOL      0.050085
    175 H84        10.3000    3.5610   -2.4090 hc        1 MOL      0.018541
    176 H85        10.5720    2.5250   -1.0580 hc        1 MOL      0.018541
    177 N15         5.4300    2.6410   -0.6370 n         1 MOL     -0.402139
    178 C54         5.7230    2.5090    0.8070 c3        1 MOL      0.051566
    179 H86         4.8690    2.8620    1.3850 h1        1 MOL      0.022234
    180 H87         5.9130    1.4630    1.0450 h1        1 MOL      0.022234
    181 H88         6.6010    3.1040    1.0560 h1        1 MOL      0.022234
    182 H89         4.4630    2.7080   -0.9180 hn        1 MOL      0.322442
    183 Ca1        -4.4420   -2.6760   -2.9340 Ca        1 MOL      1.564016
    184 O25        -4.8850   -5.0680   -4.1260 oh        1 MOL     -0.805490
    185 H90        -5.1760   -5.9060   -3.7700 ho        1 MOL      0.405273
    186 H91        -4.9940   -5.1570   -5.0740 ho        1 MOL      0.405273
    187 O26        -2.6920   -4.6280   -1.7260 oh        1 MOL     -0.805490
    188 H92        -3.4260   -4.8630   -1.1610 ho        1 MOL      0.405273
    189 H93        -2.0110   -5.2700   -1.5120 ho        1 MOL      0.405273
    190 O27        -4.4990   -2.4780   -5.6160 oh        1 MOL     -0.805490
    191 H94        -4.9670   -2.5850   -6.4480 ho        1 MOL      0.405273
    192 H95        -3.6570   -2.9010   -5.7600 ho        1 MOL      0.405273
    193 O28        -2.7910   -1.6290   -0.9260 oh        1 MOL     -0.805490
    194 H96        -2.9170   -1.7250    0.0180 ho        1 MOL      0.405273
    195 H97        -1.8520   -1.5940   -1.0490 ho        1 MOL      0.405273
    196 O29        -2.0100   -2.7220   -4.0850 oh        1 MOL     -0.805490
    197 H98        -1.4220   -3.2980   -4.5830 ho        1 MOL      0.405273
    198 H99        -1.5350   -1.8950   -4.0080 ho        1 MOL      0.405273
@<TRIPOS>BOND
     1    1    2 1   
     2    1    4 1   
     3    1    5 1   
     4    1    6 1   
     5    2    3 2   
     6    2    7 1   
     7    7    8 1   
     8    7   15 1   
     9    8    9 1   
    10    8   11 1   
    11    8   16 1   
    12    9   10 2   
    13    9   19 1   
    14   11   12 1   
    15   11   17 1   
    16   11   18 1   
    17   12   13 1   
    18   12   14 1   
    19   19   20 1   
    20   19   28 1   
    21   20   21 1   
    22   20   23 1   
    23   20   29 1   
    24   21   22 2   
    25   21   41 1   
    26   23   24 1   
    27   23   30 1   
    28   23   31 1   
    29   24   25 1   
    30   24   32 1   
    31   24   33 1   
    32   25   26 1   
    33   25   34 1   
    34   25   35 1   
    35   26   27 1   
    36   26   36 1   
    37   26   37 1   
    38   27   38 1   
    39   27   39 1   
    40   27   40 1   
    41   41   42 1   
    42   41   49 1   
    43   42   43 1   
    44   42   45 1   
    45   42   50 1   
    46   43   44 2   
    47   43   53 1   
    48   45   46 1   
    49   45   51 1   
    50   45   52 1   
    51   46   47 1   
    52   46   48 1   
    53   53   54 1   
    54   53   57 1   
    55   54   55 1   
    56   54   58 1   
    57   54   59 1   
    58   55   56 2   
    59   55   60 1   
    60   60   61 1   
    61   60   68 1   
    62   61   62 1   
    63   61   64 1   
    64   61   69 1   
    65   62   63 2   
    66   62   72 1   
    67   64   65 1   
    68   64   70 1   
    69   64   71 1   
    70   65   66 1   
    71   65   67 1   
    72   72   73 1   
    73   72   76 1   
    74   73   74 1   
    75   73   77 1   
    76   73   78 1   
    77   74   75 2   
    78   74   79 1   
    79   79   80 1   
    80   79   86 1   
    81   80   81 1   
    82   80   83 1   
    83   80   87 1   
    84   81   82 2   
    85   81   93 1   
    86   83   84 1   
    87   83   85 1   
    88   83   88 1   
    89   84   90 1   
    90   84   91 1   
    91   84   92 1   
    92   85   89 1   
    93   93   94 1   
    94   93  101 1   
    95   94   95 1   
    96   94   97 1   
    97   94  102 1   
    98   95   96 2   
    99   95  112 1   
   100   97   98 1   
   101   97   99 1   
   102   97  103 1   
   103   98  100 1   
   104   98  104 1   
   105   98  105 1   
   106   99  106 1   
   107   99  107 1   
   108   99  108 1   
   109  100  109 1   
   110  100  110 1   
   111  100  111 1   
   112  112  113 1   
   113  112  119 1   
   114  113  114 1   
   115  113  116 1   
   116  113  120 1   
   117  114  115 2   
   118  114  126 1   
   119  116  117 1   
   120  116  118 1   
   121  116  121 1   
   122  117  123 1   
   123  117  124 1   
   124  117  125 1   
   125  118  122 1   
   126  126  127 1   
   127  126  133 1   
   128  127  128 1   
   129  127  130 1   
   130  127  134 1   
   131  128  129 2   
   132  128  140 1   
   133  130  131 1   
   134  130  132 1   
   135  130  135 1   
   136  131  137 1   
   137  131  138 1   
   138  131  139 1   
   139  132  136 1   
   140  140  141 1   
   141  140  149 1   
   142  141  142 1   
   143  141  144 1   
   144  141  150 1   
   145  142  143 2   
   146  142  162 1   
   147  144  145 1   
   148  144  151 1   
   149  144  152 1   
   150  145  146 1   
   151  145  153 1   
   152  145  154 1   
   153  146  147 1   
   154  146  155 1   
   155  146  156 1   
   156  147  148 1   
   157  147  157 1   
   158  147  158 1   
   159  148  159 1   
   160  148  160 1   
   161  148  161 1   
   162  162  163 1   
   163  162  171 1   
   164  163  164 1   
   165  163  166 1   
   166  163  172 1   
   167  164  165 2   
   168  164  177 1   
   169  166  167 1   
   170  166  173 1   
   171  166  174 1   
   172  167  168 1   
   173  167  175 1   
   174  167  176 1   
   175  168  169 1   
   176  168  170 1   
   177  177  178 1   
   178  177  182 1   
   179  178  179 1   
   180  178  180 1   
   181  178  181 1   
   182  184  185 1   
   183  184  186 1   
   184  187  188 1   
   185  187  189 1   
   186  190  191 1   
   187  190  192 1   
   188  193  194 1   
   189  193  195 1   
   190  196  197 1   
   191  196  198 1   
@<TRIPOS>SUBSTRUCTURE
     1 MOL         1 TEMP              0 ****  ****    0 ROOT
