@<TRIPOS>MOLECULE
MOL
  192   187     1     0     0
SMALL
resp


@<TRIPOS>ATOM
      1 C1         10.0430   -0.5580    1.2320 c3        1 MOL     -0.554302
      2 C2          8.6050   -0.9430    0.6820 c         1 MOL      0.741193
      3 O1          7.6640   -1.0200    1.4460 o         1 MOL     -0.612083
      4 H1         10.7820   -1.2510    0.8300 hc        1 MOL      0.142632
      5 H2         10.2900    0.4570    0.9220 hc        1 MOL      0.142632
      6 H3         10.0440   -0.6180    2.3200 hc        1 MOL      0.142632
      7 N1          8.5210   -1.1120   -0.6390 n         1 MOL     -0.729562
      8 C3          7.2440   -1.1260   -1.4250 c3        1 MOL      0.203447
      9 C4          6.4620   -2.4170   -1.2050 c         1 MOL      0.643044
     10 O2          6.2370   -3.1230   -2.1860 o         1 MOL     -0.517819
     11 C5          7.5640   -0.8070   -2.9260 c3        1 MOL     -0.234210
     12 C6          8.2150    0.6100   -3.1570 c         1 MOL      0.682469
     13 O3          8.2320    1.5360   -2.3090 o         1 MOL     -0.612406
     14 O4          8.8100    0.8350   -4.2560 o         1 MOL     -0.612406
     15 H4          9.4090   -1.0190   -1.1200 hn        1 MOL      0.387691
     16 H5          6.5500   -0.3410   -1.1360 h1        1 MOL      0.086274
     17 H6          6.6290   -0.8410   -3.4990 hc        1 MOL      0.065670
     18 H7          8.1670   -1.5930   -3.3640 hc        1 MOL      0.065670
     19 N2          6.1160   -2.8100    0.0300 n         1 MOL     -0.737186
     20 C7          5.4600   -4.1590    0.1760 c3        1 MOL      0.398078
     21 C8          4.0060   -4.0760   -0.3310 c         1 MOL      0.290115
     22 O5          3.5560   -4.8340   -1.1580 o         1 MOL     -0.525021
     23 C9          5.5770   -4.5630    1.6770 c3        1 MOL     -0.174977
     24 C10         6.9460   -4.6450    2.1580 c3        1 MOL      0.164918
     25 C11         7.1240   -5.1980    3.5910 c3        1 MOL     -0.093446
     26 C12         8.6170   -5.2150    3.8670 c3        1 MOL     -0.018732
     27 N3          8.9270   -5.4900    5.2530 n4        1 MOL     -0.255064
     28 H8          6.1150   -2.1480    0.7880 hn        1 MOL      0.417517
     29 H9          5.8800   -4.9940   -0.3820 h1        1 MOL      0.038046
     30 H10         5.0970   -5.5370    1.7750 hc        1 MOL      0.026709
     31 H11         5.1230   -3.7760    2.2820 hc        1 MOL      0.026709
     32 H12         7.4410   -3.6750    2.0800 hc        1 MOL     -0.036177
     33 H13         7.4050   -5.2850    1.4080 hc        1 MOL     -0.036177
     34 H14         6.7270   -6.2100    3.5150 hc        1 MOL      0.053238
     35 H15         6.5820   -4.5770    4.3040 hc        1 MOL      0.053238
     36 H16         8.9590   -4.2000    3.6760 hx        1 MOL      0.092916
     37 H17         8.9960   -5.9870    3.2050 hx        1 MOL      0.092916
     38 H18         8.8710   -6.4740    5.4690 hn        1 MOL      0.252432
     39 H19         9.7750   -5.0440    5.5760 hn        1 MOL      0.252432
     40 H20         8.2700   -4.9390    5.7940 hn        1 MOL      0.252432
     41 N4          3.2100   -3.0940   -0.0420 n         1 MOL     -0.180389
     42 C13         3.4070   -1.8610    0.8410 c3        1 MOL     -0.053402
     43 C14         3.7370   -0.5350    0.0450 c         1 MOL      0.018551
     44 O6          3.8370   -0.4960   -1.1870 o         1 MOL     -0.348537
     45 C15         2.1790   -1.6560    1.7030 c3        1 MOL     -0.149729
     46 C16         0.8430   -1.8930    0.9620 c         1 MOL      0.326582
     47 O7          0.5970   -1.2490   -0.0690 o         1 MOL     -0.563965
     48 O8          0.1470   -2.8620    1.2900 o         1 MOL     -0.563965
     49 H21         2.4160   -3.1170   -0.6680 hn        1 MOL      0.359907
     50 H22         4.2780   -2.0110    1.4800 h1        1 MOL      0.123520
     51 H23         2.1670   -0.6610    2.1270 hc        1 MOL      0.051451
     52 H24         2.2770   -2.3280    2.5620 hc        1 MOL      0.051451
     53 N5          3.8560    0.5750    0.8380 n         1 MOL     -0.222046
     54 C17         4.0430    1.9240    0.3070 c3        1 MOL     -0.007254
     55 C18         2.9340    2.5390   -0.6000 c         1 MOL      0.514175
     56 O9          1.8440    1.9920   -0.8160 o         1 MOL     -0.473211
     57 H25         3.8780    0.3910    1.8320 hn        1 MOL      0.270793
     58 H26         4.9590    1.9380   -0.2740 h1        1 MOL      0.071079
     59 H27         4.2110    2.6540    1.0950 h1        1 MOL      0.071079
     60 N6          3.3010    3.6630   -1.2870 n         1 MOL     -0.458921
     61 C19         2.3700    4.5010   -2.0800 c3        1 MOL      0.170878
     62 C20         2.9460    5.8920   -2.3400 c         1 MOL      0.405923
     63 O10         4.2200    5.9230   -2.4070 o         1 MOL     -0.517157
     64 C21         2.0360    3.9620   -3.4880 c3        1 MOL     -0.205533
     65 C22         1.4000    2.6090   -3.6170 c         1 MOL      0.698886
     66 O11         0.2720    2.3600   -3.1770 o         1 MOL     -0.707146
     67 O12         1.9900    1.6770   -4.2590 o         1 MOL     -0.707146
     68 H28         4.2590    3.9760   -1.2640 hn        1 MOL      0.301601
     69 H29         1.5010    4.6300   -1.4440 h1        1 MOL      0.053051
     70 H30         2.9700    4.0170   -4.0540 hc        1 MOL      0.071856
     71 H31         1.4030    4.7250   -3.9580 hc        1 MOL      0.071856
     72 N7          2.2510    7.0230   -2.3800 n         1 MOL     -0.395390
     73 C23         0.7640    7.1650   -2.3300 c3        1 MOL     -0.022307
     74 C24         0.1560    6.7490   -1.0220 c         1 MOL      0.646614
     75 O13         0.6500    7.1940    0.0270 o         1 MOL     -0.535210
     76 H32         2.7700    7.8750   -2.5090 hn        1 MOL      0.317962
     77 H33         0.2760    6.6140   -3.1210 h1        1 MOL      0.059461
     78 H34         0.4700    8.2050   -2.4890 h1        1 MOL      0.059461
     79 N8         -0.9020    5.9230   -1.0810 n         1 MOL     -0.700482
     80 C25        -1.5560    5.3310    0.0970 c3        1 MOL      0.121472
     81 C26        -1.1470    3.8930    0.5170 c         1 MOL      0.619826
     82 O14        -0.8530    2.9800   -0.2490 o         1 MOL     -0.622787
     83 C27        -3.0980    5.3890    0.0500 c3        1 MOL      0.490415
     84 C28        -3.5850    6.7890   -0.0080 c3        1 MOL     -0.391750
     85 O15        -3.5590    4.8110    1.1760 oh        1 MOL     -0.710645
     86 H35        -1.2300    5.5850   -1.9780 hn        1 MOL      0.324011
     87 H36        -1.3300    5.9440    0.9670 h1        1 MOL      0.060144
     88 H37        -3.5390    4.8680   -0.7950 h1        1 MOL     -0.010596
     89 H38        -4.5090    4.9480    1.2140 ho        1 MOL      0.405727
     90 H39        -4.5830    6.7930   -0.4400 hc        1 MOL      0.096036
     91 H40        -3.5280    7.3350    0.9310 hc        1 MOL      0.096036
     92 H41        -3.0910    7.3540   -0.7940 hc        1 MOL      0.096036
     93 N9         -0.9220    3.7770    1.8450 n         1 MOL     -0.488942
     94 C29        -0.4290    2.6500    2.6270 c3        1 MOL      0.231352
     95 C30        -1.0730    1.3360    2.2480 c         1 MOL      0.188960
     96 O16        -0.5880    0.6800    1.3420 o         1 MOL     -0.336690
     97 C31         1.1380    2.5810    2.7250 c3        1 MOL      0.292159
     98 C32         1.8460    3.9220    2.9940 c3        1 MOL     -0.049118
     99 C33         1.4350    1.6720    3.9220 c3        1 MOL     -0.521965
    100 C34         1.2000    4.7150    4.1320 c3        1 MOL     -0.111316
    101 H42        -1.2950    4.5460    2.3870 hn        1 MOL      0.273196
    102 H43        -0.8250    2.8030    3.6330 h1        1 MOL      0.006075
    103 H44         1.4840    2.1970    1.7720 hc        1 MOL     -0.069391
    104 H45         1.8680    4.5260    2.0810 hc        1 MOL      0.011213
    105 H46         2.9000    3.7250    3.1630 hc        1 MOL      0.011213
    106 H47         1.1960    0.6570    3.5990 hc        1 MOL      0.130001
    107 H48         2.5200    1.6200    4.0280 hc        1 MOL      0.130001
    108 H49         1.0080    1.9320    4.8970 hc        1 MOL      0.130001
    109 H50         1.2740    4.2390    5.1120 hc        1 MOL      0.027612
    110 H51         1.6420    5.7100    4.1940 hc        1 MOL      0.027612
    111 H52         0.1380    4.8710    3.9510 hc        1 MOL      0.027612
    112 N10        -2.1330    0.8690    2.9750 n         1 MOL     -0.384240
    113 C35        -2.5140   -0.5690    3.0030 c3        1 MOL     -0.061694
    114 C36        -4.0710   -0.7370    2.9290 c         1 MOL      0.403430
    115 O17        -4.4460   -1.8850    2.9500 o         1 MOL     -0.496300
    116 C37        -1.7510   -1.2330    4.1870 c3        1 MOL      0.446293
    117 C38        -1.9170   -0.5180    5.5280 c3        1 MOL     -0.155280
    118 O18        -0.3790   -1.3500    3.7900 oh        1 MOL     -0.570452
    119 H53        -2.4710    1.5120    3.6730 hn        1 MOL      0.283514
    120 H54        -2.1780   -1.0540    2.0770 h1        1 MOL      0.115177
    121 H55        -2.1810   -2.2340    4.2550 h1        1 MOL     -0.015824
    122 H56        -0.4020   -1.7350    2.9140 ho        1 MOL      0.307114
    123 H57        -2.9670   -0.2540    5.6260 hc        1 MOL      0.028713
    124 H58        -1.7840   -1.2360    6.3410 hc        1 MOL      0.028713
    125 H59        -1.3050    0.3810    5.5440 hc        1 MOL      0.028713
    126 N11        -4.8870    0.3470    2.8720 n         1 MOL     -0.125533
    127 C39        -6.3470    0.3370    2.9330 c3        1 MOL     -0.211134
    128 C40        -6.8400   -0.2640    1.5300 c         1 MOL      0.373807
    129 O19        -7.2500    0.4450    0.6310 o         1 MOL     -0.494083
    130 C41        -6.9050    1.7750    3.1110 c3        1 MOL      0.473143
    131 C42        -7.0320    2.0880    4.5840 c3        1 MOL     -0.255630
    132 O20        -6.1090    2.8140    2.5190 oh        1 MOL     -0.571890
    133 H60        -4.4350    1.2420    2.9670 hn        1 MOL      0.145647
    134 H61        -6.7300   -0.2470    3.7630 h1        1 MOL      0.115007
    135 H62        -7.8660    1.9800    2.6320 h1        1 MOL     -0.001318
    136 H63        -5.8320    2.4860    1.6570 ho        1 MOL      0.329454
    137 H64        -7.8380    1.4880    5.0170 hc        1 MOL      0.059490
    138 H65        -6.0960    1.8220    5.0720 hc        1 MOL      0.059490
    139 H66        -7.2270    3.1650    4.6150 hc        1 MOL      0.059490
    140 N12        -6.6930   -1.5620    1.3730 n         1 MOL     -0.456516
    141 C43        -6.6060   -2.4010    0.1140 c3        1 MOL      0.203080
    142 C44        -5.3760   -2.0810   -0.8000 c         1 MOL      0.396753
    143 O21        -4.7680   -0.9700   -0.7280 o         1 MOL     -0.456960
    144 C45        -7.9660   -2.3040   -0.6710 c3        1 MOL     -0.202600
    145 C46        -9.1290   -2.6400    0.2980 c3        1 MOL     -0.039880
    146 C47       -10.3690   -3.1720   -0.3920 c3        1 MOL     -0.052703
    147 C48       -10.9460   -2.1920   -1.3850 c3        1 MOL      0.178164
    148 N13       -12.1900   -2.8430   -1.9600 n4        1 MOL     -0.384452
    149 H67        -6.5070   -2.0760    2.2260 hn        1 MOL      0.285081
    150 H68        -6.3790   -3.4070    0.4650 h1        1 MOL      0.063080
    151 H69        -7.8250   -3.0350   -1.4790 hc        1 MOL      0.078287
    152 H70        -8.0380   -1.3480   -1.1900 hc        1 MOL      0.078287
    153 H71        -9.3900   -1.7590    0.8850 hc        1 MOL      0.050870
    154 H72        -8.7260   -3.3870    0.9740 hc        1 MOL      0.050870
    155 H73       -11.1090   -3.2730    0.3970 hc        1 MOL      0.027228
    156 H74       -10.0950   -4.1080   -0.8890 hc        1 MOL      0.027228
    157 H75       -10.2690   -1.8220   -2.1610 hx        1 MOL      0.063100
    158 H76       -11.2310   -1.2640   -0.8860 hx        1 MOL      0.063100
    159 H77       -11.8980   -3.5570   -2.6120 hn        1 MOL      0.264192
    160 H78       -12.7990   -3.1990   -1.2360 hn        1 MOL      0.264192
    161 H79       -12.7570   -2.1820   -2.4790 hn        1 MOL      0.264192
    162 N14        -4.8240   -3.0830   -1.4930 n         1 MOL     -0.348203
    163 C49        -3.6010   -2.8980   -2.3190 c3        1 MOL      0.109696
    164 C50        -2.4640   -2.6230   -1.4020 c         1 MOL      0.496488
    165 O22        -1.7520   -1.6770   -1.6480 o         1 MOL     -0.626286
    166 C51        -3.3800   -4.0500   -3.3060 c3        1 MOL     -0.161922
    167 C52        -4.5180   -4.0810   -4.3490 c3        1 MOL     -0.145711
    168 C53        -4.4840   -5.3210   -5.1710 c         1 MOL      0.697866
    169 O23        -5.1890   -6.2260   -4.7400 o         1 MOL     -0.681445
    170 O24        -3.8260   -5.2940   -6.2440 o         1 MOL     -0.681445
    171 H80        -5.2390   -4.0080   -1.4700 hn        1 MOL      0.249626
    172 H81        -3.8000   -2.0280   -2.9430 h1        1 MOL      0.061597
    173 H82        -3.2510   -4.9920   -2.7660 hc        1 MOL      0.108420
    174 H83        -2.4610   -3.9180   -3.8900 hc        1 MOL      0.108420
    175 H84        -4.3450   -3.2800   -5.0640 hc        1 MOL      0.016032
    176 H85        -5.4800   -3.8110   -3.9200 hc        1 MOL      0.016032
    177 N15        -2.1090   -3.4230   -0.3590 n         1 MOL     -0.366862
    178 C54        -2.5880   -4.7640    0.0320 c3        1 MOL     -0.161338
    179 H86        -3.4110   -5.0600   -0.6180 h1        1 MOL      0.068311
    180 H87        -1.7750   -5.4830   -0.0630 h1        1 MOL      0.068311
    181 H88        -2.9340   -4.7400    1.0650 h1        1 MOL      0.068311
    182 H89        -1.3080   -3.1560    0.1810 hn        1 MOL      0.409057
    183 Ca1        -0.2990    0.6650   -1.3860 Ca        1 MOL      1.754323
    184 O25        -2.9630    1.0280   -0.4320 oh        1 MOL     -0.862431
    185 H90        -3.5140    1.6810   -0.0010 ho        1 MOL      0.416046
    186 H91        -3.5220    0.2560   -0.5150 ho        1 MOL      0.416046
    187 O26        -2.2070    1.0020   -3.1830 oh        1 MOL     -0.862431
    188 H92        -2.6040    1.6750   -3.7460 ho        1 MOL      0.416046
    189 H93        -2.1280    0.2380   -3.7520 ho        1 MOL      0.416046
    190 O27         1.6450   -0.5890   -2.7880 oh        1 MOL     -0.862431
    191 H94         2.4920   -0.6250   -2.3420 ho        1 MOL      0.416046
    192 H95         1.7710    0.0490   -3.4950 ho        1 MOL      0.416046
@<TRIPOS>BOND
     1    1    2 1   
     2    1    4 1   
     3    1    5 1   
     4    1    6 1   
     5    2    3 2   
     6    2    7 1   
     7    7    8 1   
     8    7   15 1   
     9    8    9 1   
    10    8   11 1   
    11    8   16 1   
    12    9   10 2   
    13    9   19 1   
    14   11   12 1   
    15   11   17 1   
    16   11   18 1   
    17   12   13 1   
    18   12   14 1   
    19   19   20 1   
    20   19   28 1   
    21   20   21 1   
    22   20   23 1   
    23   20   29 1   
    24   21   22 2   
    25   21   41 1   
    26   23   24 1   
    27   23   30 1   
    28   23   31 1   
    29   24   25 1   
    30   24   32 1   
    31   24   33 1   
    32   25   26 1   
    33   25   34 1   
    34   25   35 1   
    35   26   27 1   
    36   26   36 1   
    37   26   37 1   
    38   27   38 1   
    39   27   39 1   
    40   27   40 1   
    41   41   42 1   
    42   41   49 1   
    43   42   43 1   
    44   42   45 1   
    45   42   50 1   
    46   43   44 2   
    47   43   53 1   
    48   45   46 1   
    49   45   51 1   
    50   45   52 1   
    51   46   47 1   
    52   46   48 1   
    53   53   54 1   
    54   53   57 1   
    55   54   55 1   
    56   54   58 1   
    57   54   59 1   
    58   55   56 2   
    59   55   60 1   
    60   60   61 1   
    61   60   68 1   
    62   61   62 1   
    63   61   64 1   
    64   61   69 1   
    65   62   63 2   
    66   62   72 1   
    67   64   65 1   
    68   64   70 1   
    69   64   71 1   
    70   65   66 1   
    71   65   67 1   
    72   72   73 1   
    73   72   76 1   
    74   73   74 1   
    75   73   77 1   
    76   73   78 1   
    77   74   75 2   
    78   74   79 1   
    79   79   80 1   
    80   79   86 1   
    81   80   81 1   
    82   80   83 1   
    83   80   87 1   
    84   81   82 2   
    85   81   93 1   
    86   83   84 1   
    87   83   85 1   
    88   83   88 1   
    89   84   90 1   
    90   84   91 1   
    91   84   92 1   
    92   85   89 1   
    93   93   94 1   
    94   93  101 1   
    95   94   95 1   
    96   94   97 1   
    97   94  102 1   
    98   95   96 2   
    99   95  112 1   
   100   97   98 1   
   101   97   99 1   
   102   97  103 1   
   103   98  100 1   
   104   98  104 1   
   105   98  105 1   
   106   99  106 1   
   107   99  107 1   
   108   99  108 1   
   109  100  109 1   
   110  100  110 1   
   111  100  111 1   
   112  112  113 1   
   113  112  119 1   
   114  113  114 1   
   115  113  116 1   
   116  113  120 1   
   117  114  115 2   
   118  114  126 1   
   119  116  117 1   
   120  116  118 1   
   121  116  121 1   
   122  117  123 1   
   123  117  124 1   
   124  117  125 1   
   125  118  122 1   
   126  126  127 1   
   127  126  133 1   
   128  127  128 1   
   129  127  130 1   
   130  127  134 1   
   131  128  129 2   
   132  128  140 1   
   133  130  131 1   
   134  130  132 1   
   135  130  135 1   
   136  131  137 1   
   137  131  138 1   
   138  131  139 1   
   139  132  136 1   
   140  140  141 1   
   141  140  149 1   
   142  141  142 1   
   143  141  144 1   
   144  141  150 1   
   145  142  143 2   
   146  142  162 1   
   147  144  145 1   
   148  144  151 1   
   149  144  152 1   
   150  145  146 1   
   151  145  153 1   
   152  145  154 1   
   153  146  147 1   
   154  146  155 1   
   155  146  156 1   
   156  147  148 1   
   157  147  157 1   
   158  147  158 1   
   159  148  159 1   
   160  148  160 1   
   161  148  161 1   
   162  162  163 1   
   163  162  171 1   
   164  163  164 1   
   165  163  166 1   
   166  163  172 1   
   167  164  165 2   
   168  164  177 1   
   169  166  167 1   
   170  166  173 1   
   171  166  174 1   
   172  167  168 1   
   173  167  175 1   
   174  167  176 1   
   175  168  169 1   
   176  168  170 1   
   177  177  178 1   
   178  177  182 1   
   179  178  179 1   
   180  178  180 1   
   181  178  181 1   
   182  184  185 1   
   183  184  186 1   
   184  187  188 1   
   185  187  189 1   
   186  190  191 1   
   187  190  192 1   
@<TRIPOS>SUBSTRUCTURE
     1 MOL         1 TEMP              0 ****  ****    0 ROOT
