@<TRIPOS>MOLECULE
MOL
  178   175     1     0     0
SMALL
resp


@<TRIPOS>ATOM
      1 C1          2.7600   -2.9280    4.2950 c3        1 MOL     -0.338458
      2 C2          3.5090   -1.8480    3.4950 c         1 MOL      0.664139
      3 O1          3.2200   -1.6520    2.3900 o         1 MOL     -0.511298
      4 H1          2.3680   -2.4920    5.2150 hc        1 MOL      0.076138
      5 H2          1.9360   -3.3180    3.6980 hc        1 MOL      0.076138
      6 H3          3.4450   -3.7390    4.5430 hc        1 MOL      0.076138
      7 N1          4.5040   -1.2220    4.1040 n         1 MOL     -0.516074
      8 C3          5.4330   -0.2850    3.5420 c3        1 MOL      0.080363
      9 C4          6.2510   -0.9530    2.3990 c         1 MOL      0.394975
     10 O2          6.6540   -0.2880    1.4960 o         1 MOL     -0.365765
     11 C5          6.2080    0.4180    4.6800 c3        1 MOL     -0.050477
     12 C6          7.3980    1.1400    4.1820 c         1 MOL      0.635070
     13 O3          7.2480    2.3120    3.6840 o         1 MOL     -0.709857
     14 O4          8.5000    0.5240    4.1640 o         1 MOL     -0.709857
     15 H4          4.5580   -1.3560    5.1110 hn        1 MOL      0.262885
     16 H5          4.8930    0.4780    2.9980 h1        1 MOL      0.045947
     17 H6          6.5740   -0.3510    5.3500 hc        1 MOL     -0.030169
     18 H7          5.5780    1.1180    5.2330 hc        1 MOL     -0.030169
     19 N2          6.5140   -2.2600    2.5330 n         1 MOL     -0.393829
     20 C7          7.2920   -3.0120    1.5490 c3        1 MOL      0.281968
     21 C8          6.8730   -2.7230    0.0120 c         1 MOL      0.376716
     22 O5          7.7640   -2.7480   -0.8380 o         1 MOL     -0.534906
     23 C9          8.8200   -3.0030    1.8200 c3        1 MOL     -0.286698
     24 H8          6.2500   -2.6500    3.4230 hn        1 MOL      0.241385
     25 H9          6.8790   -4.0180    1.6430 h1        1 MOL     -0.007385
     26 H10         9.2690   -3.9130    1.4190 hc        1 MOL      0.072003
     27 H11         9.2230   -2.1710    1.2510 hc        1 MOL      0.072003
     28 H12         9.0720   -3.0480    2.8800 hc        1 MOL      0.072003
     29 N3          5.6160   -2.5830   -0.1830 n         1 MOL     -0.293367
     30 C10         4.8470   -2.3820   -1.4380 c3        1 MOL      0.286617
     31 C11         5.3840   -1.2600   -2.2860 c         1 MOL      0.352616
     32 O6          5.3370   -1.2000   -3.5290 o         1 MOL     -0.572323
     33 C12         4.5820   -3.6210   -2.2590 c3        1 MOL     -0.222153
     34 C13         3.8770   -4.7980   -1.4930 c         1 MOL      0.646710
     35 O7          4.5580   -5.7000   -0.8880 o         1 MOL     -0.688719
     36 O8          2.6130   -4.8250   -1.4920 o         1 MOL     -0.688719
     37 H13         5.0940   -2.8820    0.6280 hn        1 MOL      0.250910
     38 H14         3.8690   -2.0370   -1.1170 h1        1 MOL      0.006573
     39 H15         5.5480   -4.0370   -2.5490 hc        1 MOL      0.019317
     40 H16         3.9680   -3.4200   -3.1280 hc        1 MOL      0.019317
     41 N4          5.8370   -0.2520   -1.6130 n         1 MOL      0.112948
     42 C14         6.2160    0.9960   -2.1920 c3        1 MOL     -0.259713
     43 C15         5.0540    1.8520   -2.8280 c         1 MOL      0.622611
     44 O9          5.3570    2.6960   -3.6800 o         1 MOL     -0.601729
     45 H17         5.8650   -0.3620   -0.6160 hn        1 MOL     -0.021103
     46 H18         7.0600    0.9250   -2.8760 h1        1 MOL      0.109233
     47 H19         6.4870    1.6800   -1.3910 h1        1 MOL      0.109233
     48 N5          3.8430    1.5210   -2.4890 n         1 MOL     -0.284532
     49 C16         2.6660    2.2150   -2.9700 c3        1 MOL     -0.066232
     50 C17         2.5240    3.5920   -2.2640 c         1 MOL      0.434247
     51 O10         2.6980    3.8140   -1.0340 o         1 MOL     -0.483164
     52 C18         1.3790    1.3220   -2.8440 c3        1 MOL     -0.215726
     53 C19         1.3680   -0.0130   -3.6150 c         1 MOL      0.611683
     54 N6          1.4090    0.0350   -4.9700 n         1 MOL     -0.757052
     55 O11         1.2790   -1.1230   -3.1140 o         1 MOL     -0.531343
     56 H20         3.7410    0.7400   -1.8560 hn        1 MOL      0.219361
     57 H21         2.8780    2.4340   -4.0130 h1        1 MOL      0.068678
     58 H22         0.5040    1.9290   -3.0990 hc        1 MOL      0.114954
     59 H23         1.1790    1.1580   -1.7880 hc        1 MOL      0.114954
     60 H24         1.6260    0.9120   -5.4180 hn        1 MOL      0.339305
     61 H25         1.2290   -0.7880   -5.5110 hn        1 MOL      0.339305
     62 N7          2.3640    4.6090   -3.1470 n         1 MOL     -0.267752
     63 C20         2.2810    6.0000   -2.6340 c3        1 MOL     -0.242990
     64 C21         0.8620    6.4230   -2.3250 c         1 MOL      0.629984
     65 O12        -0.0140    6.1200   -3.1440 o         1 MOL     -0.550212
     66 H26         2.2760    4.4090   -4.1370 hn        1 MOL      0.260484
     67 H27         2.6800    6.7230   -3.3620 h1        1 MOL      0.123821
     68 H28         2.9170    6.0510   -1.7600 h1        1 MOL      0.123821
     69 N8          0.6060    7.0160   -1.1870 n         1 MOL     -0.577389
     70 C22        -0.6700    7.4640   -0.7270 c3        1 MOL      0.028430
     71 C23        -1.4490    6.2990   -0.0950 c         1 MOL      0.547415
     72 O13        -2.6900    6.2300   -0.2550 o         1 MOL     -0.576966
     73 C24        -0.4800    8.5500    0.2660 c3        1 MOL      0.260012
     74 C25        -1.7850    9.0310    0.9090 c3        1 MOL     -0.352455
     75 O14         0.4610    8.1780    1.2860 oh        1 MOL     -0.617113
     76 H29         1.3360    7.0280   -0.4840 hn        1 MOL      0.297754
     77 H30        -1.2530    7.8500   -1.5630 h1        1 MOL      0.109258
     78 H31        -0.0890    9.4490   -0.2280 h1        1 MOL      0.025977
     79 H32         0.7630    8.9760    1.7220 ho        1 MOL      0.413948
     80 H33        -2.2770    8.2650    1.5120 hc        1 MOL      0.094096
     81 H34        -1.4760    9.8610    1.5530 hc        1 MOL      0.094096
     82 H35        -2.4950    9.4100    0.1720 hc        1 MOL      0.094096
     83 N9         -0.7530    5.4230    0.6370 n         1 MOL     -0.256824
     84 C26        -1.1770    4.1850    1.4030 c3        1 MOL     -0.082224
     85 C27        -1.2130    3.0130    0.3590 c         1 MOL      0.449538
     86 O15        -0.6150    3.0590   -0.6840 o         1 MOL     -0.424003
     87 C28        -0.2920    3.9510    2.6980 c3        1 MOL      0.109679
     88 C29         1.1070    3.4300    2.2710 c3        1 MOL     -0.247490
     89 C30        -0.1400    5.3450    3.4530 c3        1 MOL     -0.217508
     90 C31         1.8420    2.9450    3.5370 c3        1 MOL     -0.286645
     91 H36         0.1810    5.7700    0.8420 hn        1 MOL      0.225657
     92 H37        -2.1760    4.2460    1.8150 h1        1 MOL      0.060495
     93 H38        -0.7980    3.2380    3.3470 hc        1 MOL      0.041410
     94 H39         1.6880    4.0770    1.6210 hc        1 MOL      0.167175
     95 H40         1.0330    2.5570    1.6210 hc        1 MOL      0.167175
     96 H41         0.1840    6.1890    2.8630 hc        1 MOL      0.054034
     97 H42        -1.1020    5.6420    3.8800 hc        1 MOL      0.054034
     98 H43         0.5840    5.2640    4.2610 hc        1 MOL      0.054034
     99 H44         2.7390    2.4280    3.2080 hc        1 MOL      0.091390
    100 H45         2.2330    3.7770    4.1200 hc        1 MOL      0.091390
    101 H46         1.2470    2.3050    4.1780 hc        1 MOL      0.091390
    102 N10        -1.9360    1.9720    0.6630 n         1 MOL     -0.473902
    103 C32        -1.9640    0.6990   -0.0740 c3        1 MOL      0.060274
    104 C33        -3.3240    0.0330    0.0120 c         1 MOL      0.462530
    105 O16        -3.4720   -0.9960    0.6330 o         1 MOL     -0.294241
    106 C34        -0.7030   -0.0480    0.4120 c3        1 MOL     -0.268521
    107 C35        -0.3450   -1.3070   -0.4090 c         1 MOL      0.856800
    108 O17         0.7380   -1.9000   -0.2550 o         1 MOL     -0.771157
    109 O18        -1.1210   -1.6020   -1.3650 o         1 MOL     -0.771157
    110 H47        -2.6120    2.0350    1.4170 hn        1 MOL      0.287134
    111 H48        -1.7360    0.8910   -1.1170 h1        1 MOL      0.059773
    112 H49        -0.7300   -0.3600    1.4630 hc        1 MOL      0.074044
    113 H50         0.1570    0.6170    0.3630 hc        1 MOL      0.074044
    114 N11        -4.3590    0.7130   -0.5060 n         1 MOL     -0.497526
    115 C36        -5.7360    0.3310   -0.6170 c3        1 MOL      0.063616
    116 C37        -6.2750   -0.6200    0.4940 c         1 MOL      0.458683
    117 O19        -6.3940   -0.2320    1.6500 o         1 MOL     -0.538847
    118 C38        -6.6260    1.5510   -0.7770 c3        1 MOL     -0.299323
    119 C39        -8.0930    1.3620   -0.8290 ca        1 MOL      0.092424
    120 C40        -8.6950    0.8690   -1.9760 ca        1 MOL     -0.128018
    121 C41        -8.8760    1.5540    0.3200 ca        1 MOL     -0.128018
    122 C42       -10.0300    0.6420   -2.0830 ca        1 MOL     -0.156656
    123 C43       -10.2640    1.3300    0.2710 ca        1 MOL     -0.156656
    124 C44       -10.8170    0.8930   -0.9510 ca        1 MOL     -0.068977
    125 H51        -4.0600    1.6160   -0.8570 hn        1 MOL      0.324857
    126 H52        -5.8400   -0.2460   -1.5350 h1        1 MOL      0.069355
    127 H53        -6.2870    2.1900   -1.5970 hc        1 MOL      0.126499
    128 H54        -6.3960    2.1810    0.0870 hc        1 MOL      0.126499
    129 H55        -8.0990    0.4850   -2.7910 ha        1 MOL      0.118067
    130 H56        -8.4450    2.0130    1.1990 ha        1 MOL      0.118067
    131 H57       -10.6160    0.2370   -2.8970 ha        1 MOL      0.121401
    132 H58       -10.9550    1.3260    1.1070 ha        1 MOL      0.121401
    133 H59       -11.8980    0.8150   -1.0290 ha        1 MOL      0.079526
    134 N12        -6.7460   -1.8400    0.2170 n         1 MOL      0.019920
    135 C45        -7.4360   -2.6670    1.2510 c3        1 MOL     -0.090874
    136 C46        -6.3810   -3.2990    2.2080 c         1 MOL      0.338514
    137 O20        -6.6730   -3.9320    3.1940 o         1 MOL     -0.500452
    138 C47        -8.3310   -3.6740    0.5260 c3        1 MOL     -0.051201
    139 C48        -7.7050   -3.7000   -0.8780 c3        1 MOL      0.107011
    140 C49        -6.6700   -2.6000   -0.9660 c3        1 MOL     -0.158567
    141 H60        -8.0810   -2.0190    1.8340 h1        1 MOL      0.104574
    142 H61        -8.2870   -4.6680    0.9740 hc        1 MOL      0.034841
    143 H62        -9.3650   -3.3560    0.4000 hc        1 MOL      0.034841
    144 H63        -7.3870   -4.7360   -1.0310 hc        1 MOL     -0.010177
    145 H64        -8.5000   -3.5760   -1.6210 hc        1 MOL     -0.010177
    146 H65        -5.7250   -3.1460   -0.9720 h1        1 MOL      0.046307
    147 H66        -6.7640   -1.9570   -1.8410 h1        1 MOL      0.046307
    148 N13        -5.0940   -3.1950    1.7980 n         1 MOL      0.034708
    149 C50        -3.8880   -3.6710    2.5410 c3        1 MOL     -0.325930
    150 C51        -3.6090   -2.7390    3.6440 c         1 MOL      0.483411
    151 O21        -3.3840   -3.1800    4.8100 o         1 MOL     -0.554629
    152 C52        -2.6850   -3.8610    1.6300 c3        1 MOL      0.061011
    153 C53        -2.9010   -4.9380    0.4860 c3        1 MOL     -0.116619
    154 C54        -1.7510   -4.8930   -0.5290 c         1 MOL      0.640053
    155 O22        -2.0670   -4.6400   -1.7300 o         1 MOL     -0.725422
    156 O23        -0.5370   -4.9660   -0.1950 o         1 MOL     -0.725422
    157 H67        -4.9230   -2.5330    1.0580 hn        1 MOL      0.067786
    158 H68        -4.1050   -4.6260    3.0190 h1        1 MOL      0.150908
    159 H69        -1.8900   -4.3190    2.2130 hc        1 MOL      0.059538
    160 H70        -2.2570   -2.9600    1.1810 hc        1 MOL      0.059538
    161 H71        -3.8510   -4.7960   -0.0450 hc        1 MOL      0.012579
    162 H72        -2.9940   -5.9450    0.8940 hc        1 MOL      0.012579
    163 N14        -3.7790   -1.4160    3.4650 n         1 MOL     -0.198078
    164 C55        -3.5720   -0.3430    4.4890 c3        1 MOL     -0.119292
    165 H73        -3.0640   -0.7630    5.3570 h1        1 MOL      0.067263
    166 H74        -2.9620    0.4530    4.0630 h1        1 MOL      0.067263
    167 H75        -4.5370    0.0610    4.7940 h1        1 MOL      0.067263
    168 H76        -3.8480   -1.1910    2.4790 hn        1 MOL      0.157141
    169 Ca1         0.4270   -3.6390   -2.3680 Ca        1 MOL      1.714580
    170 O24         0.1430   -6.1480   -3.0940 oh        1 MOL     -0.816915
    171 H77         0.6010   -6.6900   -3.7470 ho        1 MOL      0.401834
    172 H78        -0.3580   -6.7800   -2.5680 ho        1 MOL      0.401834
    173 O25        -1.1450   -3.0140   -4.4350 oh        1 MOL     -0.816915
    174 H79        -0.9210   -2.3070   -5.0450 ho        1 MOL      0.401834
    175 H80        -1.8650   -3.4810   -4.8670 ho        1 MOL      0.401834
    176 O26         2.0280   -3.7590   -4.5730 oh        1 MOL     -0.816915
    177 H81         2.0740   -4.2720   -5.3770 ho        1 MOL      0.401834
    178 H82         2.7180   -3.1050   -4.6690 ho        1 MOL      0.401834
@<TRIPOS>BOND
     1    1    2 1   
     2    1    4 1   
     3    1    5 1   
     4    1    6 1   
     5    2    3 2   
     6    2    7 1   
     7    7    8 1   
     8    7   15 1   
     9    8    9 1   
    10    8   11 1   
    11    8   16 1   
    12    9   10 2   
    13    9   19 1   
    14   11   12 1   
    15   11   17 1   
    16   11   18 1   
    17   12   13 1   
    18   12   14 1   
    19   19   20 1   
    20   19   24 1   
    21   20   21 1   
    22   20   23 1   
    23   20   25 1   
    24   21   22 2   
    25   21   29 1   
    26   23   26 1   
    27   23   27 1   
    28   23   28 1   
    29   29   30 1   
    30   29   37 1   
    31   30   31 1   
    32   30   33 1   
    33   30   38 1   
    34   31   32 2   
    35   31   41 1   
    36   33   34 1   
    37   33   39 1   
    38   33   40 1   
    39   34   35 1   
    40   34   36 1   
    41   41   42 1   
    42   41   45 1   
    43   42   43 1   
    44   42   46 1   
    45   42   47 1   
    46   43   44 2   
    47   43   48 1   
    48   48   49 1   
    49   48   56 1   
    50   49   50 1   
    51   49   52 1   
    52   49   57 1   
    53   50   51 2   
    54   50   62 1   
    55   52   53 1   
    56   52   58 1   
    57   52   59 1   
    58   53   54 1   
    59   53   55 2   
    60   54   60 1   
    61   54   61 1   
    62   62   63 1   
    63   62   66 1   
    64   63   64 1   
    65   63   67 1   
    66   63   68 1   
    67   64   65 2   
    68   64   69 1   
    69   69   70 1   
    70   69   76 1   
    71   70   71 1   
    72   70   73 1   
    73   70   77 1   
    74   71   72 2   
    75   71   83 1   
    76   73   74 1   
    77   73   75 1   
    78   73   78 1   
    79   74   80 1   
    80   74   81 1   
    81   74   82 1   
    82   75   79 1   
    83   83   84 1   
    84   83   91 1   
    85   84   85 1   
    86   84   87 1   
    87   84   92 1   
    88   85   86 2   
    89   85  102 1   
    90   87   88 1   
    91   87   89 1   
    92   87   93 1   
    93   88   90 1   
    94   88   94 1   
    95   88   95 1   
    96   89   96 1   
    97   89   97 1   
    98   89   98 1   
    99   90   99 1   
   100   90  100 1   
   101   90  101 1   
   102  102  103 1   
   103  102  110 1   
   104  103  104 1   
   105  103  106 1   
   106  103  111 1   
   107  104  105 2   
   108  104  114 1   
   109  106  107 1   
   110  106  112 1   
   111  106  113 1   
   112  107  108 1   
   113  107  109 1   
   114  114  115 1   
   115  114  125 1   
   116  115  116 1   
   117  115  118 1   
   118  115  126 1   
   119  116  117 2   
   120  116  134 1   
   121  118  119 1   
   122  118  127 1   
   123  118  128 1   
   124  119  120 ar  
   125  119  121 ar  
   126  120  122 ar  
   127  120  129 1   
   128  121  123 ar  
   129  121  130 1   
   130  122  124 ar  
   131  122  131 1   
   132  123  124 ar  
   133  123  132 1   
   134  124  133 1   
   135  134  135 1   
   136  134  140 1   
   137  135  136 1   
   138  135  138 1   
   139  135  141 1   
   140  136  137 2   
   141  136  148 1   
   142  138  139 1   
   143  138  142 1   
   144  138  143 1   
   145  139  140 1   
   146  139  144 1   
   147  139  145 1   
   148  140  146 1   
   149  140  147 1   
   150  148  149 1   
   151  148  157 1   
   152  149  150 1   
   153  149  152 1   
   154  149  158 1   
   155  150  151 2   
   156  150  163 1   
   157  152  153 1   
   158  152  159 1   
   159  152  160 1   
   160  153  154 1   
   161  153  161 1   
   162  153  162 1   
   163  154  155 1   
   164  154  156 1   
   165  163  164 1   
   166  163  168 1   
   167  164  165 1   
   168  164  166 1   
   169  164  167 1   
   170  170  171 1   
   171  170  172 1   
   172  173  174 1   
   173  173  175 1   
   174  176  177 1   
   175  176  178 1   
@<TRIPOS>SUBSTRUCTURE
     1 MOL         1 TEMP              0 ****  ****    0 ROOT
