@<TRIPOS>MOLECULE
MOL
  189   185     1     0     0
SMALL
resp


@<TRIPOS>ATOM
      1 C1          8.6140    0.7530    2.3750 c3        1 MOL     -0.526579
      2 C2          7.7130    0.3290    1.2500 c         1 MOL      0.800276
      3 O1          6.5130    0.0160    1.3430 o         1 MOL     -0.722387
      4 H1          8.4230    0.1280    3.2470 hc        1 MOL      0.142050
      5 H2          9.6540    0.6410    2.0700 hc        1 MOL      0.142050
      6 H3          8.4180    1.7950    2.6240 hc        1 MOL      0.142050
      7 N1          8.3000    0.0920    0.0640 n         1 MOL     -0.588090
      8 C3          7.5420   -0.0910   -1.2640 c3        1 MOL      0.025485
      9 C4          7.0350   -1.5860   -1.4790 c         1 MOL      0.447735
     10 O2          7.0470   -2.1450   -2.5700 o         1 MOL     -0.454134
     11 C5          8.4920    0.3210   -2.4370 c3        1 MOL     -0.324006
     12 C6          9.9120   -0.3640   -2.6090 c         1 MOL      0.759137
     13 O3         10.4350   -1.0680   -1.7070 o         1 MOL     -0.656767
     14 O4         10.5210   -0.1830   -3.6880 o         1 MOL     -0.656767
     15 H4          9.2920    0.2000   -0.0290 hn        1 MOL      0.289098
     16 H5          6.6070    0.4830   -1.2840 h1        1 MOL      0.126757
     17 H6          8.7540    1.3770   -2.3660 hc        1 MOL      0.101104
     18 H7          7.8360    0.1290   -3.2930 hc        1 MOL      0.101104
     19 N2          6.5870   -2.2330   -0.3980 n         1 MOL     -0.303340
     20 C7          6.0350   -3.6130   -0.3440 c3        1 MOL     -0.100366
     21 C8          4.6340   -3.7040   -0.8220 c         1 MOL      0.494003
     22 O5          4.2960   -4.6300   -1.4740 o         1 MOL     -0.567915
     23 C9          6.1310   -4.2770    1.0400 c3        1 MOL      0.042483
     24 C10         7.5580   -4.3580    1.6030 c3        1 MOL     -0.161009
     25 C11         7.6900   -5.0380    2.9960 c3        1 MOL     -0.020690
     26 C12         9.0450   -4.6520    3.6140 c3        1 MOL      0.071548
     27 N3          9.1710   -5.3550    4.8640 n4        1 MOL     -0.281529
     28 H8          6.5450   -1.6170    0.4080 hn        1 MOL      0.264381
     29 H9          6.7000   -4.1850   -0.9930 h1        1 MOL      0.129224
     30 H10         5.6220   -5.2350    1.0080 hc        1 MOL      0.025570
     31 H11         5.5280   -3.7240    1.7570 hc        1 MOL      0.025570
     32 H12         7.9570   -3.3400    1.6450 hc        1 MOL      0.070829
     33 H13         8.2040   -4.9270    0.9490 hc        1 MOL      0.070829
     34 H14         7.5720   -6.1270    2.9190 hc        1 MOL      0.032337
     35 H15         6.9040   -4.8140    3.7100 hc        1 MOL      0.032337
     36 H16         9.0700   -3.5710    3.7250 hx        1 MOL      0.068032
     37 H17         9.8430   -4.9010    2.9200 hx        1 MOL      0.068032
     38 H18        10.1030   -5.2040    5.2140 hn        1 MOL      0.262609
     39 H19         8.5000   -5.0790    5.5680 hn        1 MOL      0.262609
     40 H20         9.1350   -6.3510    4.6890 hn        1 MOL      0.262609
     41 N4          3.6700   -2.8340   -0.6130 n         1 MOL     -0.179338
     42 C13         3.5840   -1.7400    0.3870 c3        1 MOL     -0.187205
     43 C14         3.4350   -0.3280   -0.2360 c         1 MOL      0.210410
     44 O6          3.0310   -0.1560   -1.4020 o         1 MOL     -0.383730
     45 C15         2.3300   -2.0340    1.3110 c3        1 MOL     -0.187108
     46 C16         1.0600   -2.5780    0.5650 c         1 MOL      0.641608
     47 O7          0.8990   -2.1110   -0.6080 o         1 MOL     -0.598605
     48 O8          0.2050   -3.2040    1.1080 o         1 MOL     -0.598605
     49 H21         2.8480   -3.1160   -1.1320 hn        1 MOL      0.258193
     50 H22         4.4850   -1.8210    0.9960 h1        1 MOL      0.160726
     51 H23         2.0390   -1.0950    1.7820 hc        1 MOL      0.041906
     52 H24         2.6690   -2.8530    1.9400 hc        1 MOL      0.041906
     53 N5          3.8260    0.7080    0.5130 n         1 MOL      0.067166
     54 C17         3.9640    2.1340    0.1560 c3        1 MOL     -0.358107
     55 C18         2.7060    2.7530   -0.4690 c         1 MOL      0.687108
     56 O9          1.6660    2.1770   -0.4150 o         1 MOL     -0.804429
     57 H25         4.2850    0.3900    1.3540 hn        1 MOL      0.191664
     58 H26         4.8140    2.2940   -0.5080 h1        1 MOL      0.141790
     59 H27         4.1190    2.6080    1.1230 h1        1 MOL      0.141790
     60 N6          2.9000    3.9010   -1.1090 n         1 MOL     -0.491839
     61 C19         1.8260    4.7230   -1.7620 c3        1 MOL      0.364981
     62 C20         1.9340    6.2080   -1.5070 c         1 MOL      0.321006
     63 O10         3.0750    6.7180   -1.4270 o         1 MOL     -0.525756
     64 C21         1.6840    4.3950   -3.2820 c3        1 MOL     -0.267294
     65 C22         1.8820    2.9380   -3.7280 c         1 MOL      0.701735
     66 O11         2.7900    2.7120   -4.5440 o         1 MOL     -0.640148
     67 O12         1.1050    2.0460   -3.3850 o         1 MOL     -0.640148
     68 H28         3.8490    4.2470   -1.1440 hn        1 MOL      0.294434
     69 H29         0.9000    4.4770   -1.2510 h1        1 MOL      0.003248
     70 H30         2.3560    4.9830   -3.9060 hc        1 MOL      0.060308
     71 H31         0.6900    4.7070   -3.6160 hc        1 MOL      0.060308
     72 N7          0.8870    7.0480   -1.3160 n         1 MOL     -0.319654
     73 C23        -0.5200    6.7670   -1.4470 c3        1 MOL     -0.123776
     74 C24        -1.0130    6.2370   -0.0960 c         1 MOL      0.578131
     75 O13        -0.3650    6.3780    0.9180 o         1 MOL     -0.496891
     76 H32         1.1300    8.0210   -1.1800 hn        1 MOL      0.299266
     77 H33        -0.7230    6.2150   -2.3570 h1        1 MOL      0.083075
     78 H34        -0.9430    7.7530   -1.6300 h1        1 MOL      0.083075
     79 N8         -2.1690    5.4440   -0.0800 n         1 MOL     -0.501911
     80 C25        -2.9750    5.2010    1.1530 c3        1 MOL      0.064455
     81 C26        -2.3020    4.2780    2.1570 c         1 MOL      0.239907
     82 O14        -2.7440    4.3190    3.2790 o         1 MOL     -0.559037
     83 C27        -4.4210    4.6960    0.7730 c3        1 MOL      0.486830
     84 C28        -4.4930    3.2000    0.6110 c3        1 MOL     -0.379232
     85 O15        -4.8520    5.1820   -0.4760 oh        1 MOL     -0.687315
     86 H35        -2.6160    5.2590   -0.9690 hn        1 MOL      0.257090
     87 H36        -3.1560    6.1460    1.6460 h1        1 MOL      0.093312
     88 H37        -5.1180    5.1140    1.4920 h1        1 MOL     -0.028895
     89 H38        -5.4690    4.5570   -0.8540 ho        1 MOL      0.426573
     90 H39        -4.5550    2.6830    1.5720 hc        1 MOL      0.081463
     91 H40        -5.4180    2.8770    0.1390 hc        1 MOL      0.081463
     92 H41        -3.6050    2.8600    0.0760 hc        1 MOL      0.081463
     93 N9         -1.3490    3.4990    1.8010 n         1 MOL      0.099801
     94 C29        -0.7680    2.3760    2.5670 c3        1 MOL      0.026953
     95 C30        -1.1330    1.0120    1.9710 c         1 MOL     -0.005771
     96 O16        -0.6260    0.6050    0.9130 o         1 MOL     -0.164942
     97 C31         0.8000    2.5560    2.8230 c3        1 MOL      0.543930
     98 C32         1.3670    3.9340    3.1420 c3        1 MOL     -0.104268
     99 C33         1.2460    1.4820    3.9260 c3        1 MOL     -0.346672
    100 C34         0.6090    4.5820    4.2930 c3        1 MOL     -0.155909
    101 H42        -1.0640    3.6070    0.8370 hn        1 MOL      0.193895
    102 H43        -1.2490    2.4580    3.5470 h1        1 MOL      0.001071
    103 H44         1.3640    2.1530    1.9820 hc        1 MOL     -0.187670
    104 H45         1.1600    4.4510    2.2070 hc        1 MOL      0.020940
    105 H46         2.4550    3.9660    3.2340 hc        1 MOL      0.020940
    106 H47         0.6100    1.6090    4.8050 hc        1 MOL      0.066324
    107 H48         1.0830    0.4750    3.5540 hc        1 MOL      0.066324
    108 H49         2.2910    1.6700    4.1890 hc        1 MOL      0.066324
    109 H50         0.8820    5.6440    4.3260 hc        1 MOL      0.033482
    110 H51        -0.4710    4.4830    4.1720 hc        1 MOL      0.033482
    111 H52         0.8820    4.0430    5.2020 hc        1 MOL      0.033482
    112 N10        -1.9420    0.2430    2.6940 n         1 MOL     -0.189831
    113 C35        -2.2480   -1.1670    2.3620 c3        1 MOL     -0.242738
    114 C36        -3.7680   -1.4530    2.1020 c         1 MOL      0.645248
    115 O17        -4.1070   -2.5710    1.7020 o         1 MOL     -0.611863
    116 C37        -1.7690   -2.0530    3.4840 c3        1 MOL      0.326513
    117 C38        -2.0580   -1.5330    4.9620 c3        1 MOL     -0.281427
    118 O18        -0.3550   -2.1240    3.4750 oh        1 MOL     -0.592913
    119 H53        -2.4550    0.6450    3.4650 hn        1 MOL      0.288836
    120 H54        -1.7530   -1.6070    1.4840 h1        1 MOL      0.255045
    121 H55        -2.1060   -3.0740    3.3230 h1        1 MOL      0.026791
    122 H56        -0.1050   -2.7170    2.7650 ho        1 MOL      0.341277
    123 H57        -1.5970   -0.5580    5.1420 hc        1 MOL      0.061934
    124 H58        -3.1320   -1.3800    5.0740 hc        1 MOL      0.061934
    125 H59        -1.6430   -2.2510    5.6720 hc        1 MOL      0.061934
    126 N11        -4.6200   -0.5600    2.4540 n         1 MOL     -0.351606
    127 C39        -6.0700   -0.6200    2.3680 c3        1 MOL     -0.124813
    128 C40        -6.4250   -0.9200    0.9170 c         1 MOL      0.460273
    129 O19        -6.2130   -0.1040    0.0270 o         1 MOL     -0.455977
    130 C41        -6.7120    0.7520    2.7860 c3        1 MOL      0.252372
    131 C42        -8.2330    0.9120    2.9680 c3        1 MOL     -0.583423
    132 O20        -6.2720    1.0040    4.1270 oh        1 MOL     -0.567236
    133 H60        -4.2350    0.2410    2.9410 hn        1 MOL      0.241486
    134 H61        -6.4330   -1.3490    3.0910 h1        1 MOL      0.108050
    135 H62        -6.4200    1.5920    2.1550 h1        1 MOL      0.146396
    136 H63        -6.8300    0.4070    4.6350 ho        1 MOL      0.375791
    137 H64        -8.7690    0.5270    2.1050 hc        1 MOL      0.163735
    138 H65        -8.5870    0.1820    3.6940 hc        1 MOL      0.163735
    139 H66        -8.5630    1.9310    3.1560 hc        1 MOL      0.163735
    140 N12        -7.0450   -2.0960    0.6360 n         1 MOL     -0.384383
    141 C43        -7.3860   -2.7610   -0.6810 c3        1 MOL      0.169884
    142 C44        -6.2710   -2.6190   -1.7550 c         1 MOL      0.483084
    143 O21        -6.4840   -2.1980   -2.8770 o         1 MOL     -0.478636
    144 C45        -8.7880   -2.3310   -1.1040 c3        1 MOL     -0.327588
    145 C46        -9.9000   -2.9450   -0.1810 c3        1 MOL      0.225810
    146 C47       -11.2920   -3.2210   -0.7180 c3        1 MOL     -0.144232
    147 C48       -11.1870   -3.9890   -2.0370 c3        1 MOL      0.194479
    148 N13       -12.5580   -4.2020   -2.5370 n4        1 MOL     -0.439872
    149 H67        -7.2630   -2.6340    1.4650 hn        1 MOL      0.219847
    150 H68        -7.3510   -3.8480   -0.6280 h1        1 MOL      0.044391
    151 H69        -8.9560   -2.6480   -2.1340 hc        1 MOL      0.110758
    152 H70        -8.8970   -1.2460   -1.0000 hc        1 MOL      0.110758
    153 H71       -10.0480   -2.2400    0.6410 hc        1 MOL     -0.044232
    154 H72        -9.4420   -3.8150    0.2850 hc        1 MOL     -0.044232
    155 H73       -11.7940   -2.2810   -0.9420 hc        1 MOL      0.045228
    156 H74       -11.8690   -3.8210   -0.0250 hc        1 MOL      0.045228
    157 H75       -10.6430   -4.9310   -1.9280 hx        1 MOL      0.040510
    158 H76       -10.5460   -3.4100   -2.7040 hx        1 MOL      0.040510
    159 H77       -13.0230   -4.8070   -1.8760 hn        1 MOL      0.294295
    160 H78       -13.0260   -3.3200   -2.6870 hn        1 MOL      0.294295
    161 H79       -12.5500   -4.6180   -3.4580 hn        1 MOL      0.294295
    162 N14        -5.0170   -2.9100   -1.2890 n         1 MOL     -0.680584
    163 C49        -3.8270   -2.3750   -2.0020 c3        1 MOL      0.487783
    164 C50        -2.5620   -2.3400   -1.1620 c         1 MOL      0.300043
    165 O22        -1.9680   -1.2970   -0.9750 o         1 MOL     -0.673141
    166 C51        -3.5170   -3.1190   -3.3320 c3        1 MOL     -0.392963
    167 C52        -2.3370   -2.5230   -4.0910 c3        1 MOL      0.171158
    168 C53        -2.2610   -1.0430   -4.1090 c         1 MOL      0.590272
    169 O23        -1.2560   -0.4260   -3.6180 o         1 MOL     -0.665871
    170 O24        -3.2500   -0.3570   -4.5280 o         1 MOL     -0.665871
    171 H80        -4.9280   -3.3030   -0.3570 hn        1 MOL      0.340870
    172 H81        -4.1590   -1.3660   -2.2390 h1        1 MOL      0.093843
    173 H82        -4.4170   -3.0190   -3.9370 hc        1 MOL      0.090380
    174 H83        -3.2700   -4.1730   -3.1900 hc        1 MOL      0.090380
    175 H84        -2.2740   -2.9480   -5.1020 hc        1 MOL     -0.030909
    176 H85        -1.4550   -2.8460   -3.5380 hc        1 MOL     -0.030909
    177 N15        -2.0670   -3.4610   -0.5800 n         1 MOL     -0.111551
    178 C54        -2.4390   -4.9400   -0.6270 c3        1 MOL     -0.292899
    179 H86        -3.3820   -5.0940   -0.1020 h1        1 MOL      0.109001
    180 H87        -2.5460   -5.2560   -1.6650 h1        1 MOL      0.109001
    181 H88        -1.6570   -5.5280   -0.1470 h1        1 MOL      0.109001
    182 H89        -1.1980   -3.2790   -0.0950 hn        1 MOL      0.194823
    183 Ca1         0.2580    0.1430   -1.5840 Ca        1 MOL      1.682351
    184 O25        -1.4000    2.1490   -1.5160 oh        1 MOL     -0.927644
    185 H90        -1.2380    2.9910   -1.9320 ho        1 MOL      0.428068
    186 H91        -2.1370    1.7730   -2.0160 ho        1 MOL      0.428068
    187 O26         1.7200   -1.0540   -3.6320 oh        1 MOL     -0.927644
    188 H92         1.4200   -0.8740   -4.5230 ho        1 MOL      0.428068
    189 H93         2.6630   -1.1890   -3.7160 ho        1 MOL      0.428068
@<TRIPOS>BOND
     1    1    2 1   
     2    1    4 1   
     3    1    5 1   
     4    1    6 1   
     5    2    3 2   
     6    2    7 1   
     7    7    8 1   
     8    7   15 1   
     9    8    9 1   
    10    8   11 1   
    11    8   16 1   
    12    9   10 2   
    13    9   19 1   
    14   11   12 1   
    15   11   17 1   
    16   11   18 1   
    17   12   13 1   
    18   12   14 1   
    19   19   20 1   
    20   19   28 1   
    21   20   21 1   
    22   20   23 1   
    23   20   29 1   
    24   21   22 2   
    25   21   41 1   
    26   23   24 1   
    27   23   30 1   
    28   23   31 1   
    29   24   25 1   
    30   24   32 1   
    31   24   33 1   
    32   25   26 1   
    33   25   34 1   
    34   25   35 1   
    35   26   27 1   
    36   26   36 1   
    37   26   37 1   
    38   27   38 1   
    39   27   39 1   
    40   27   40 1   
    41   41   42 1   
    42   41   49 1   
    43   42   43 1   
    44   42   45 1   
    45   42   50 1   
    46   43   44 2   
    47   43   53 1   
    48   45   46 1   
    49   45   51 1   
    50   45   52 1   
    51   46   47 1   
    52   46   48 1   
    53   53   54 1   
    54   53   57 1   
    55   54   55 1   
    56   54   58 1   
    57   54   59 1   
    58   55   56 2   
    59   55   60 1   
    60   60   61 1   
    61   60   68 1   
    62   61   62 1   
    63   61   64 1   
    64   61   69 1   
    65   62   63 2   
    66   62   72 1   
    67   64   65 1   
    68   64   70 1   
    69   64   71 1   
    70   65   66 1   
    71   65   67 1   
    72   72   73 1   
    73   72   76 1   
    74   73   74 1   
    75   73   77 1   
    76   73   78 1   
    77   74   75 2   
    78   74   79 1   
    79   79   80 1   
    80   79   86 1   
    81   80   81 1   
    82   80   83 1   
    83   80   87 1   
    84   81   82 2   
    85   81   93 1   
    86   83   84 1   
    87   83   85 1   
    88   83   88 1   
    89   84   90 1   
    90   84   91 1   
    91   84   92 1   
    92   85   89 1   
    93   93   94 1   
    94   93  101 1   
    95   94   95 1   
    96   94   97 1   
    97   94  102 1   
    98   95   96 2   
    99   95  112 1   
   100   97   98 1   
   101   97   99 1   
   102   97  103 1   
   103   98  100 1   
   104   98  104 1   
   105   98  105 1   
   106   99  106 1   
   107   99  107 1   
   108   99  108 1   
   109  100  109 1   
   110  100  110 1   
   111  100  111 1   
   112  112  113 1   
   113  112  119 1   
   114  113  114 1   
   115  113  116 1   
   116  113  120 1   
   117  114  115 2   
   118  114  126 1   
   119  116  117 1   
   120  116  118 1   
   121  116  121 1   
   122  117  123 1   
   123  117  124 1   
   124  117  125 1   
   125  118  122 1   
   126  126  127 1   
   127  126  133 1   
   128  127  128 1   
   129  127  130 1   
   130  127  134 1   
   131  128  129 2   
   132  128  140 1   
   133  130  131 1   
   134  130  132 1   
   135  130  135 1   
   136  131  137 1   
   137  131  138 1   
   138  131  139 1   
   139  132  136 1   
   140  140  141 1   
   141  140  149 1   
   142  141  142 1   
   143  141  144 1   
   144  141  150 1   
   145  142  143 2   
   146  142  162 1   
   147  144  145 1   
   148  144  151 1   
   149  144  152 1   
   150  145  146 1   
   151  145  153 1   
   152  145  154 1   
   153  146  147 1   
   154  146  155 1   
   155  146  156 1   
   156  147  148 1   
   157  147  157 1   
   158  147  158 1   
   159  148  159 1   
   160  148  160 1   
   161  148  161 1   
   162  162  163 1   
   163  162  171 1   
   164  163  164 1   
   165  163  166 1   
   166  163  172 1   
   167  164  165 2   
   168  164  177 1   
   169  166  167 1   
   170  166  173 1   
   171  166  174 1   
   172  167  168 1   
   173  167  175 1   
   174  167  176 1   
   175  168  169 1   
   176  168  170 1   
   177  177  178 1   
   178  177  182 1   
   179  178  179 1   
   180  178  180 1   
   181  178  181 1   
   182  184  185 1   
   183  184  186 1   
   184  187  188 1   
   185  187  189 1   
@<TRIPOS>SUBSTRUCTURE
     1 MOL         1 TEMP              0 ****  ****    0 ROOT
