@<TRIPOS>MOLECULE
MOL
  182   178     1     0     0
SMALL
resp


@<TRIPOS>ATOM
      1 C1         -6.4030    1.7070   -2.2130 c3        1 MOL     -0.370110
      2 C2         -7.0450    1.6920   -0.8540 c         1 MOL      0.829476
      3 O1         -6.3010    1.6970    0.1400 o         1 MOL     -0.552463
      4 H1         -5.3220    1.6260   -2.1050 hc        1 MOL      0.090082
      5 H2         -6.7730    0.8660   -2.8000 hc        1 MOL      0.090082
      6 H3         -6.6470    2.6390   -2.7210 hc        1 MOL      0.090082
      7 N1         -8.3830    1.5570   -0.7630 n         1 MOL     -0.719044
      8 C3         -9.1840    1.2620    0.4000 c3        1 MOL     -0.058822
      9 C4         -8.8610   -0.0560    1.1430 c         1 MOL      0.507899
     10 O2         -9.4180   -0.2680    2.2750 o         1 MOL     -0.524552
     11 C5         -9.3770    2.4880    1.3140 c3        1 MOL     -0.162036
     12 C6         -9.5000    3.8920    0.6150 c         1 MOL      0.713659
     13 O3         -9.0950    4.8880    1.2530 o         1 MOL     -0.647318
     14 O4        -10.2450    4.0510   -0.4090 o         1 MOL     -0.647318
     15 H4         -8.9280    1.4250   -1.6070 hn        1 MOL      0.356141
     16 H5        -10.1700    1.0520   -0.0370 h1        1 MOL      0.108441
     17 H6         -8.6170    2.6220    2.0850 hc        1 MOL      0.071323
     18 H7        -10.2560    2.3380    1.9380 hc        1 MOL      0.071323
     19 N2         -8.2120   -0.9800    0.4450 n         1 MOL     -0.291358
     20 C7         -7.9770   -2.3660    0.9200 c3        1 MOL     -0.004038
     21 C8         -6.4940   -2.6530    1.0340 c         1 MOL      0.580016
     22 O5         -6.0980   -3.7380    1.3890 o         1 MOL     -0.585626
     23 C9         -8.7760   -3.4550    0.0710 c3        1 MOL     -0.187507
     24 C10        -8.6350   -3.2980   -1.4750 c3        1 MOL      0.287328
     25 C11        -9.6050   -4.2750   -2.1710 c3        1 MOL     -0.279206
     26 C12        -9.8680   -3.9080   -3.6470 c3        1 MOL      0.179046
     27 N3        -10.8490   -4.8100   -4.3000 n4        1 MOL     -0.281217
     28 H8         -7.8000   -0.6900   -0.4300 hn        1 MOL      0.198319
     29 H9         -8.3150   -2.4810    1.9490 h1        1 MOL      0.121772
     30 H10        -9.8310   -3.2620    0.2960 hc        1 MOL      0.059625
     31 H11        -8.5130   -4.4950    0.2930 hc        1 MOL      0.059625
     32 H12        -7.6010   -3.4170   -1.8000 hc        1 MOL     -0.053844
     33 H13        -8.8560   -2.2610   -1.7160 hc        1 MOL     -0.053844
     34 H14       -10.5900   -4.2660   -1.7190 hc        1 MOL      0.093187
     35 H15        -9.1500   -5.2570   -2.1130 hc        1 MOL      0.093187
     36 H16        -8.9940   -3.8680   -4.2990 hx        1 MOL      0.034892
     37 H17       -10.1900   -2.8600   -3.7420 hx        1 MOL      0.034892
     38 H18       -10.4490   -5.7350   -4.3230 hn        1 MOL      0.248093
     39 H19       -11.7260   -4.9020   -3.8110 hn        1 MOL      0.248093
     40 H20       -11.0250   -4.5350   -5.2610 hn        1 MOL      0.248093
     41 N4         -5.6670   -1.6500    0.8700 n         1 MOL     -0.452517
     42 C13        -4.2000   -1.7840    0.8930 c3        1 MOL      0.219141
     43 C14        -3.5630   -1.8270    2.3770 c         1 MOL      0.428244
     44 O6         -3.6210   -0.8680    3.1500 o         1 MOL     -0.518084
     45 C15        -3.6120   -0.6380    0.1100 c3        1 MOL     -0.660393
     46 C16        -2.0420   -0.6560    0.0290 c         1 MOL      1.297400
     47 O7         -1.4040    0.2650   -0.5430 o         1 MOL     -0.908628
     48 O8         -1.4120   -1.6950    0.2600 o         1 MOL     -0.908628
     49 H21        -6.0910   -0.7390    0.7560 hn        1 MOL      0.270510
     50 H22        -3.9040   -2.7350    0.4500 h1        1 MOL      0.048338
     51 H23        -4.0360    0.2760    0.5430 hc        1 MOL      0.125108
     52 H24        -3.9640   -0.7210   -0.9150 hc        1 MOL      0.125108
     53 N5         -3.0050   -2.9230    2.7080 n         1 MOL     -0.104372
     54 C17        -2.5100   -3.3080    4.0230 c3        1 MOL     -0.336370
     55 C18        -1.2290   -2.5800    4.4220 c         1 MOL      0.538203
     56 O9         -0.9750   -2.4470    5.6520 o         1 MOL     -0.525298
     57 H25        -3.2280   -3.6440    2.0280 hn        1 MOL      0.212244
     58 H26        -2.1850   -4.3430    3.9370 h1        1 MOL      0.153893
     59 H27        -3.2950   -3.1530    4.7550 h1        1 MOL      0.153893
     60 N6         -0.5140   -2.1210    3.3910 n         1 MOL     -0.382745
     61 C19         0.4560   -1.0540    3.6410 c3        1 MOL      0.068418
     62 C20         0.1480    0.2020    2.6960 c         1 MOL      0.627084
     63 O10         0.6960    0.2710    1.5720 o         1 MOL     -0.570287
     64 C21         1.9250   -1.4260    3.5070 c3        1 MOL     -0.331946
     65 C22         2.2220   -2.4570    2.3990 c         1 MOL      0.620683
     66 N7          2.5000   -3.6420    2.8070 n         1 MOL     -0.746125
     67 O11         2.0340   -2.3000    1.1950 o         1 MOL     -0.605285
     68 H28        -0.8090   -2.3550    2.4470 hn        1 MOL      0.286417
     69 H29         0.3440   -0.7130    4.6690 h1        1 MOL      0.066775
     70 H30         2.2160   -2.0140    4.3710 hc        1 MOL      0.105198
     71 H31         2.4780   -0.5000    3.4140 hc        1 MOL      0.105198
     72 H32         2.4570   -3.8040    3.8100 hn        1 MOL      0.379640
     73 H33         2.3380   -4.3790    2.1350 hn        1 MOL      0.379640
     74 N8         -0.7890    1.0710    3.1140 n         1 MOL     -0.585283
     75 C23        -1.2980    2.1270    2.3410 c3        1 MOL      0.182263
     76 C24        -0.3260    3.0850    1.7080 c         1 MOL      0.455857
     77 O12         0.3680    3.7840    2.4540 o         1 MOL     -0.535752
     78 H34        -1.3190    0.8740    3.9440 hn        1 MOL      0.361900
     79 H35        -1.9810    2.7550    2.9180 h1        1 MOL      0.025937
     80 H36        -1.8900    1.7040    1.5280 h1        1 MOL      0.025937
     81 N9         -0.1960    3.0340    0.3640 n         1 MOL     -0.356401
     82 C25         0.8210    3.7230   -0.4330 c3        1 MOL      0.156438
     83 C26         1.8810    2.6750   -0.9210 c         1 MOL      0.540628
     84 O13         1.6260    1.4840   -1.0190 o         1 MOL     -0.503566
     85 C27         0.0590    4.4160   -1.5980 c3        1 MOL     -0.117390
     86 C28        -1.1640    5.1440   -1.3660 ca        1 MOL      0.035748
     87 C29        -2.1340    5.2110   -2.3980 ca        1 MOL     -0.140254
     88 C30        -1.4960    5.8580   -0.1380 ca        1 MOL     -0.140254
     89 C31        -3.2990    5.9970   -2.3550 ca        1 MOL     -0.300250
     90 C32        -2.6520    6.6600   -0.0690 ca        1 MOL     -0.300250
     91 C33        -3.5750    6.6840   -1.1130 ca        1 MOL      0.405666
     92 O14        -4.5420    7.6980   -1.1230 oh        1 MOL     -0.525657
     93 H37        -0.8200    2.3750   -0.0810 hn        1 MOL      0.273892
     94 H38         1.3680    4.4440    0.1680 h1        1 MOL      0.040794
     95 H39        -0.2400    3.7370   -2.3980 hc        1 MOL      0.042098
     96 H40         0.6430    5.1530   -2.1320 hc        1 MOL      0.042098
     97 H41        -1.9240    4.6310   -3.2940 ha        1 MOL      0.121849
     98 H42        -0.8320    5.8190    0.7090 ha        1 MOL      0.121849
     99 H43        -4.0690    6.0680   -3.1090 ha        1 MOL      0.171682
    100 H44        -2.7840    7.3460    0.7490 ha        1 MOL      0.171682
    101 H45        -4.3880    8.4120   -0.4960 ho        1 MOL      0.378673
    102 N10         3.0730    3.0900   -1.2940 n         1 MOL     -0.600130
    103 C34         4.1680    2.1740   -1.7090 c3        1 MOL     -0.058972
    104 C35         5.3420    2.1020   -0.7790 c         1 MOL      0.525869
    105 O15         6.2340    1.3460   -0.9860 o         1 MOL     -0.634295
    106 C36         4.5450    2.4680   -3.2120 c3        1 MOL      0.186971
    107 C37         4.8080    3.9820   -3.6320 c3        1 MOL      0.088985
    108 C38         3.5500    1.7960   -4.1000 c3        1 MOL     -0.368618
    109 C39         6.1790    4.4580   -3.1180 c3        1 MOL     -0.062054
    110 H46         3.3600    4.0580   -1.3260 hn        1 MOL      0.309938
    111 H47         3.8890    1.1290   -1.6750 h1        1 MOL      0.202245
    112 H48         5.4960    1.9660   -3.3880 hc        1 MOL      0.037866
    113 H49         3.9870    4.6230   -3.3060 hc        1 MOL     -0.016266
    114 H50         4.7810    4.1040   -4.7070 hc        1 MOL     -0.016266
    115 H51         2.5510    2.1990   -3.9130 hc        1 MOL      0.076409
    116 H52         3.8990    1.9430   -5.1210 hc        1 MOL      0.076409
    117 H53         3.5420    0.7250   -3.8930 hc        1 MOL      0.076409
    118 H54         6.3580    5.4740   -3.4810 hc        1 MOL      0.013383
    119 H55         6.0430    4.6740   -2.0560 hc        1 MOL      0.013383
    120 H56         6.9650    3.8070   -3.4840 hc        1 MOL      0.013383
    121 N11         5.3450    2.9110    0.2510 n         1 MOL     -0.425771
    122 C40         6.3680    3.2450    1.2800 c3        1 MOL     -0.013243
    123 C41         7.4550    2.1930    1.5070 c         1 MOL      0.591540
    124 O16         7.4430    1.5580    2.5370 o         1 MOL     -0.534618
    125 C42         7.0740    4.5380    0.9600 c3        1 MOL      0.228289
    126 O17         7.7180    4.9160    2.1670 oh        1 MOL     -0.614740
    127 H57         4.4890    3.4440    0.2740 hn        1 MOL      0.284556
    128 H58         5.8170    3.3680    2.2070 h1        1 MOL      0.107408
    129 H59         6.3050    5.2870    0.8010 h1        1 MOL     -0.016715
    130 H60         7.7170    4.5600    0.0800 h1        1 MOL     -0.016715
    131 H61         7.4680    5.8320    2.3090 ho        1 MOL      0.415378
    132 N12         8.3960    1.9220    0.5800 n         1 MOL     -0.296978
    133 C43         9.5080    0.9310    0.6050 c3        1 MOL      0.126995
    134 C44         9.0220   -0.4910    0.9230 c         1 MOL      0.597062
    135 O18         9.7920   -1.2360    1.5520 o         1 MOL     -0.547153
    136 C45        10.6780    1.4730    1.4020 c3        1 MOL     -0.235767
    137 H62         8.3310    2.4960   -0.2500 hn        1 MOL      0.219491
    138 H63        10.0220    0.7810   -0.3440 h1        1 MOL      0.059859
    139 H64        10.4310    1.3230    2.4500 hc        1 MOL      0.073312
    140 H65        11.6130    0.9840    1.1430 hc        1 MOL      0.073312
    141 H66        10.7850    2.5340    1.1810 hc        1 MOL      0.073312
    142 N13         7.7730   -0.9340    0.5950 n         1 MOL     -0.780593
    143 C46         7.1770   -2.2590    0.9210 c3        1 MOL      0.681776
    144 C47         6.2780   -2.8960   -0.1880 c         1 MOL      0.343572
    145 O19         6.1200   -2.2130   -1.1570 o         1 MOL     -0.557427
    146 C48         6.3130   -2.1240    2.1740 c3        1 MOL     -0.484195
    147 H67         7.1290   -0.2630    0.1990 hn        1 MOL      0.367537
    148 H68         7.9620   -3.0010    1.0550 h1        1 MOL     -0.040716
    149 H69         5.3930   -1.5990    1.9580 hc        1 MOL      0.115990
    150 H70         6.0630   -3.1280    2.5300 hc        1 MOL      0.115990
    151 H71         6.7170   -1.5870    3.0300 hc        1 MOL      0.115990
    152 N14         5.6780   -4.0150    0.0450 n         1 MOL     -0.589102
    153 C49         4.8370   -4.8560   -0.8940 c3        1 MOL      0.089450
    154 C50         5.4250   -5.2720   -2.2590 c         1 MOL      0.465125
    155 O20         5.2410   -6.4790   -2.5890 o         1 MOL     -0.528285
    156 C51         3.4520   -4.1870   -1.1220 c3        1 MOL     -0.063852
    157 C52         2.3770   -5.2100   -1.6130 c3        1 MOL     -0.302290
    158 C53         0.9020   -4.6950   -1.3690 c         1 MOL      0.670586
    159 O21        -0.0320   -5.5150   -1.1690 o         1 MOL     -0.683856
    160 O22         0.6630   -3.5140   -1.2800 o         1 MOL     -0.683856
    161 H72         5.7100   -4.3750    0.9860 hn        1 MOL      0.339521
    162 H73         4.7120   -5.8760   -0.5380 h1        1 MOL      0.072049
    163 H74         3.4080   -3.4630   -1.9300 hc        1 MOL      0.094672
    164 H75         3.2660   -3.7760   -0.1270 hc        1 MOL      0.094672
    165 H76         2.4990   -6.1760   -1.1220 hc        1 MOL      0.075944
    166 H77         2.6230   -5.3710   -2.6630 hc        1 MOL      0.075944
    167 N15         6.0850   -4.3430   -2.9650 n         1 MOL     -0.309231
    168 C54         6.2220   -4.5050   -4.4010 c3        1 MOL     -0.099619
    169 H78         7.2760   -4.6120   -4.6550 h1        1 MOL      0.068995
    170 H79         5.6800   -5.3960   -4.7210 h1        1 MOL      0.068995
    171 H80         5.8130   -3.6310   -4.9070 h1        1 MOL      0.068995
    172 H81         6.1380   -3.4020   -2.5960 hn        1 MOL      0.310950
    173 Ca1         0.8850   -1.0050   -0.8650 Ca        1 MOL      1.747122
    174 O23         3.5750   -0.7430   -0.4380 oh        1 MOL     -0.856799
    175 H82         3.7510   -0.4940    0.4750 ho        1 MOL      0.414886
    176 H83         4.4160   -1.0170   -0.7860 ho        1 MOL      0.414886
    177 O24         2.0830   -1.4410   -3.3780 oh        1 MOL     -0.856799
    178 H84         1.6580   -0.7790   -3.9270 ho        1 MOL      0.414886
    179 H85         2.0930   -2.2390   -3.9080 ho        1 MOL      0.414886
    180 O25        -0.6060   -0.7350   -3.1210 oh        1 MOL     -0.856799
    181 H86        -0.2920   -0.0460   -3.7060 ho        1 MOL      0.414886
    182 H87        -1.4730   -0.9690   -3.4660 ho        1 MOL      0.414886
@<TRIPOS>BOND
     1    1    2 1   
     2    1    4 1   
     3    1    5 1   
     4    1    6 1   
     5    2    3 2   
     6    2    7 1   
     7    7    8 1   
     8    7   15 1   
     9    8    9 1   
    10    8   11 1   
    11    8   16 1   
    12    9   10 2   
    13    9   19 1   
    14   11   12 1   
    15   11   17 1   
    16   11   18 1   
    17   12   13 1   
    18   12   14 1   
    19   19   20 1   
    20   19   28 1   
    21   20   21 1   
    22   20   23 1   
    23   20   29 1   
    24   21   22 2   
    25   21   41 1   
    26   23   24 1   
    27   23   30 1   
    28   23   31 1   
    29   24   25 1   
    30   24   32 1   
    31   24   33 1   
    32   25   26 1   
    33   25   34 1   
    34   25   35 1   
    35   26   27 1   
    36   26   36 1   
    37   26   37 1   
    38   27   38 1   
    39   27   39 1   
    40   27   40 1   
    41   41   42 1   
    42   41   49 1   
    43   42   43 1   
    44   42   45 1   
    45   42   50 1   
    46   43   44 2   
    47   43   53 1   
    48   45   46 1   
    49   45   51 1   
    50   45   52 1   
    51   46   47 1   
    52   46   48 1   
    53   53   54 1   
    54   53   57 1   
    55   54   55 1   
    56   54   58 1   
    57   54   59 1   
    58   55   56 2   
    59   55   60 1   
    60   60   61 1   
    61   60   68 1   
    62   61   62 1   
    63   61   64 1   
    64   61   69 1   
    65   62   63 2   
    66   62   74 1   
    67   64   65 1   
    68   64   70 1   
    69   64   71 1   
    70   65   66 1   
    71   65   67 2   
    72   66   72 1   
    73   66   73 1   
    74   74   75 1   
    75   74   78 1   
    76   75   76 1   
    77   75   79 1   
    78   75   80 1   
    79   76   77 2   
    80   76   81 1   
    81   81   82 1   
    82   81   93 1   
    83   82   83 1   
    84   82   85 1   
    85   82   94 1   
    86   83   84 2   
    87   83  102 1   
    88   85   86 1   
    89   85   95 1   
    90   85   96 1   
    91   86   87 ar  
    92   86   88 ar  
    93   87   89 ar  
    94   87   97 1   
    95   88   90 ar  
    96   88   98 1   
    97   89   91 ar  
    98   89   99 1   
    99   90   91 ar  
   100   90  100 1   
   101   91   92 1   
   102   92  101 1   
   103  102  103 1   
   104  102  110 1   
   105  103  104 1   
   106  103  106 1   
   107  103  111 1   
   108  104  105 2   
   109  104  121 1   
   110  106  107 1   
   111  106  108 1   
   112  106  112 1   
   113  107  109 1   
   114  107  113 1   
   115  107  114 1   
   116  108  115 1   
   117  108  116 1   
   118  108  117 1   
   119  109  118 1   
   120  109  119 1   
   121  109  120 1   
   122  121  122 1   
   123  121  127 1   
   124  122  123 1   
   125  122  125 1   
   126  122  128 1   
   127  123  124 2   
   128  123  132 1   
   129  125  126 1   
   130  125  129 1   
   131  125  130 1   
   132  126  131 1   
   133  132  133 1   
   134  132  137 1   
   135  133  134 1   
   136  133  136 1   
   137  133  138 1   
   138  134  135 2   
   139  134  142 1   
   140  136  139 1   
   141  136  140 1   
   142  136  141 1   
   143  142  143 1   
   144  142  147 1   
   145  143  144 1   
   146  143  146 1   
   147  143  148 1   
   148  144  145 2   
   149  144  152 1   
   150  146  149 1   
   151  146  150 1   
   152  146  151 1   
   153  152  153 1   
   154  152  161 1   
   155  153  154 1   
   156  153  156 1   
   157  153  162 1   
   158  154  155 2   
   159  154  167 1   
   160  156  157 1   
   161  156  163 1   
   162  156  164 1   
   163  157  158 1   
   164  157  165 1   
   165  157  166 1   
   166  158  159 1   
   167  158  160 1   
   168  167  168 1   
   169  167  172 1   
   170  168  169 1   
   171  168  170 1   
   172  168  171 1   
   173  174  175 1   
   174  174  176 1   
   175  177  178 1   
   176  177  179 1   
   177  180  181 1   
   178  180  182 1   
@<TRIPOS>SUBSTRUCTURE
     1 MOL         1 TEMP              0 ****  ****    0 ROOT
