@<TRIPOS>MOLECULE
MOL
  201   193     1     0     0
SMALL
resp


@<TRIPOS>ATOM
      1 C1          2.1420   -5.4780   -1.4390 c3        1 MOL     -0.343914
      2 C2          1.5470   -4.0200   -1.2340 c         1 MOL      0.671228
      3 O1          2.3640   -3.1500   -1.1780 o         1 MOL     -0.669976
      4 H1          2.6100   -5.5450   -2.4210 hc        1 MOL      0.082596
      5 H2          2.8870   -5.6790   -0.6680 hc        1 MOL      0.082596
      6 H3          1.3390   -6.2120   -1.3690 hc        1 MOL      0.082596
      7 N1          0.2680   -3.6310   -1.0220 n         1 MOL     -0.340381
      8 C3         -0.8190   -4.5250   -0.5520 c3        1 MOL     -0.065320
      9 C4         -1.5100   -5.2630   -1.6400 c         1 MOL      0.388002
     10 O2         -1.7900   -6.4880   -1.4640 o         1 MOL     -0.553715
     11 C5         -1.7910   -3.6780    0.3060 c3        1 MOL     -0.183447
     12 C6         -1.2640   -3.0400    1.5660 c         1 MOL      0.776585
     13 O3         -0.7120   -3.7420    2.4540 o         1 MOL     -0.722401
     14 O4         -1.4380   -1.8180    1.7480 o         1 MOL     -0.722401
     15 H4          0.1880   -2.6290   -1.0230 hn        1 MOL      0.276890
     16 H5         -0.3710   -5.2290    0.1500 h1        1 MOL      0.080804
     17 H6         -2.5250   -4.4070    0.6580 hc        1 MOL      0.052764
     18 H7         -2.4520   -3.0060   -0.2390 hc        1 MOL      0.052764
     19 N2         -1.8080   -4.5840   -2.7020 n         1 MOL     -0.021784
     20 C7         -2.7260   -5.0280   -3.7800 c3        1 MOL     -0.220139
     21 C8         -4.1980   -4.8470   -3.3860 c         1 MOL      0.522024
     22 O5         -5.0520   -5.6290   -3.7980 o         1 MOL     -0.580573
     23 C9         -2.3860   -4.2120   -5.0700 c3        1 MOL      0.090443
     24 C10        -2.5480   -2.7370   -4.6830 c3        1 MOL      0.133126
     25 C11        -1.0720   -4.6500   -5.7970 c3        1 MOL     -0.168763
     26 C12        -2.3310   -1.8010   -5.8490 c3        1 MOL     -0.265335
     27 H8         -1.4780   -3.6280   -2.7170 hn        1 MOL     -0.056245
     28 H9         -2.6400   -6.1050   -3.9360 h1        1 MOL      0.103958
     29 H10        -3.1680   -4.4140   -5.8090 hc        1 MOL      0.010538
     30 H11        -1.7590   -2.4150   -4.0060 hc        1 MOL      0.049015
     31 H12        -3.5550   -2.5580   -4.3130 hc        1 MOL      0.049015
     32 H13        -1.0100   -5.6620   -6.1920 hc        1 MOL      0.038141
     33 H14        -0.9810   -4.0270   -6.6930 hc        1 MOL      0.038141
     34 H15        -0.1610   -4.5480   -5.2030 hc        1 MOL      0.038141
     35 H16        -1.3450   -1.8950   -6.3140 hc        1 MOL      0.043415
     36 H17        -3.0660   -2.0360   -6.6240 hc        1 MOL      0.043415
     37 H18        -2.4030   -0.7750   -5.4860 hc        1 MOL      0.043415
     38 N3         -4.4640   -3.9710   -2.4590 n         1 MOL     -0.231509
     39 C13        -5.8370   -3.4740   -2.1420 c3        1 MOL      0.054128
     40 C14        -5.8310   -3.0030   -0.6800 c         1 MOL      0.319939
     41 O6         -4.8340   -2.4860   -0.1340 o         1 MOL     -0.467736
     42 C15        -6.2140   -2.3880   -3.1460 c3        1 MOL     -0.108308
     43 C16        -7.5560   -1.5700   -2.9210 c         1 MOL      0.554063
     44 O7         -7.6740   -0.4150   -3.4940 o         1 MOL     -0.652293
     45 O8         -8.4680   -2.1340   -2.2310 o         1 MOL     -0.652293
     46 H19        -3.7320   -3.4360   -2.0070 hn        1 MOL      0.199429
     47 H20        -6.5940   -4.2640   -2.0780 h1        1 MOL      0.031981
     48 H21        -6.0900   -2.8810   -4.1050 hc        1 MOL      0.022666
     49 H22        -5.4760   -1.6000   -3.0970 hc        1 MOL      0.022666
     50 N4         -6.9690   -3.0240   -0.0390 n         1 MOL     -0.201671
     51 C17        -7.2410   -2.5630    1.3400 c3        1 MOL     -0.177695
     52 C18        -7.1470   -1.1190    1.6370 c         1 MOL      0.696502
     53 O9         -6.9770   -0.7720    2.8010 o         1 MOL     -0.566070
     54 H23        -7.8030   -3.3290   -0.5290 hn        1 MOL      0.227192
     55 H24        -6.6390   -3.1690    2.0160 h1        1 MOL      0.075441
     56 H25        -8.2390   -2.8360    1.6710 h1        1 MOL      0.075441
     57 N5         -7.1700   -0.2580    0.5870 n         1 MOL     -0.503947
     58 C19        -6.8800    1.1910    0.6010 c3        1 MOL      0.168842
     59 C20        -5.9930    1.6260   -0.6350 c         1 MOL      0.460391
     60 O10        -5.8340    0.9440   -1.6400 o         1 MOL     -0.467978
     61 C21        -8.1620    2.0430    0.5620 c3        1 MOL     -0.218331
     62 C22        -8.9920    1.8720    1.8480 c         1 MOL      0.672341
     63 O11        -9.7960    0.9320    1.8240 o         1 MOL     -0.653329
     64 O12        -8.8060    2.6820    2.7970 o         1 MOL     -0.653329
     65 H26        -7.4280   -0.6760   -0.2870 hn        1 MOL      0.341558
     66 H27        -6.3150    1.4590    1.4970 h1        1 MOL      0.061382
     67 H28        -8.7920    1.7220   -0.2610 hc        1 MOL      0.038807
     68 H29        -7.8980    3.0960    0.4810 hc        1 MOL      0.038807
     69 N6         -5.3860    2.7850   -0.7350 n         1 MOL     -0.377186
     70 C23        -5.1940    3.7500    0.3870 c3        1 MOL     -0.166358
     71 C24        -4.3440    5.0640    0.0920 c         1 MOL      0.623256
     72 O13        -4.3770    5.5640   -1.0390 o         1 MOL     -0.556696
     73 H30        -4.9700    3.1320   -1.5910 hn        1 MOL      0.277006
     74 H31        -4.7300    3.2780    1.2580 h1        1 MOL      0.107467
     75 H32        -6.1730    4.1430    0.6820 h1        1 MOL      0.107467
     76 N7         -3.7480    5.7140    1.0990 n         1 MOL     -0.595832
     77 C25        -3.3750    5.1120    2.4520 c3        1 MOL      0.266910
     78 C26        -2.3810    3.9240    2.3200 c         1 MOL      0.314010
     79 O14        -2.4430    2.9990    3.1360 o         1 MOL     -0.447359
     80 C27        -4.5930    4.8440    3.3730 c3        1 MOL     -0.346095
     81 C28        -4.1230    5.1660    4.7700 c3        1 MOL     -0.129083
     82 C29        -5.3790    5.2000    5.7080 c         1 MOL      0.659218
     83 N8         -5.0820    5.3250    6.9860 n         1 MOL     -0.771845
     84 O15        -6.5300    5.1340    5.3680 o         1 MOL     -0.503952
     85 H33        -3.3620    6.6110    0.8390 hn        1 MOL      0.294096
     86 H34        -2.7730    5.8750    2.9470 h1        1 MOL      0.022513
     87 H35        -4.8570    3.7930    3.3040 hc        1 MOL      0.145837
     88 H36        -5.4670    5.4190    3.0500 hc        1 MOL      0.145837
     89 H37        -3.6760    6.1540    4.8110 hc        1 MOL      0.056160
     90 H38        -3.4020    4.4140    5.0940 hc        1 MOL      0.056160
     91 H39        -4.1520    5.3670    7.3820 hn        1 MOL      0.326242
     92 H40        -5.8350    5.5610    7.6190 hn        1 MOL      0.326242
     93 N9         -1.5950    3.9570    1.1730 n         1 MOL     -0.279442
     94 C30        -0.5980    2.9140    0.8070 c3        1 MOL     -0.029755
     95 C31        -0.5370    2.8220   -0.7650 c         1 MOL      0.450068
     96 O16        -0.7880    3.7760   -1.4800 o         1 MOL     -0.493528
     97 C32         0.7460    2.9490    1.4760 c3        1 MOL      0.085697
     98 C33         0.7480    2.7540    2.9940 c3        1 MOL     -0.203879
     99 C34         1.4070    4.2700    1.1440 c3        1 MOL     -0.203879
    100 H41        -1.7350    4.7580    0.5830 hn        1 MOL      0.204748
    101 H42        -1.0690    1.9640    1.0720 h1        1 MOL      0.130395
    102 H43         1.3960    2.2040    1.0100 hc        1 MOL      0.064304
    103 H44         0.4090    3.6610    3.4920 hc        1 MOL      0.062391
    104 H45         0.2160    1.9330    3.4740 hc        1 MOL      0.062391
    105 H46         1.7540    2.4330    3.2730 hc        1 MOL      0.062391
    106 H47         2.3520    4.4100    1.6690 hc        1 MOL      0.062391
    107 H48         1.4140    4.3610    0.0620 hc        1 MOL      0.062391
    108 H49         0.7710    5.0810    1.5050 hc        1 MOL      0.062391
    109 N10         0.0660    1.7220   -1.3020 n         1 MOL     -0.413668
    110 C35         0.0460    1.5260   -2.7540 c3        1 MOL      0.070247
    111 C36         1.3500    2.0290   -3.4660 c         1 MOL      0.403697
    112 O17         1.3430    2.0080   -4.7360 o         1 MOL     -0.564047
    113 C37        -0.2700    0.1380   -3.1800 c3        1 MOL      0.026014
    114 C38        -1.4930   -0.4050   -2.3960 c         1 MOL      0.594188
    115 N11        -2.5890    0.2980   -2.4030 n         1 MOL     -0.748404
    116 O18        -1.4170   -1.4500   -1.8050 o         1 MOL     -0.517859
    117 H50         0.3450    0.9340   -0.7440 hn        1 MOL      0.295584
    118 H51        -0.7760    2.1400   -3.1390 h1        1 MOL      0.089390
    119 H52         0.5820   -0.5420   -3.1160 hc        1 MOL      0.012140
    120 H53        -0.5950    0.2070   -4.2230 hc        1 MOL      0.012140
    121 H54        -2.6570    1.1720   -2.9060 hn        1 MOL      0.364179
    122 H55        -3.3130   -0.0440   -1.7900 hn        1 MOL      0.364179
    123 N12         2.3740    2.4610   -2.7780 n         1 MOL     -0.154050
    124 C39         3.7830    2.7740   -3.2550 c3        1 MOL      0.054708
    125 C40         4.8330    2.5080   -2.1130 c         1 MOL      0.648234
    126 O19         4.4900    2.4300   -0.9230 o         1 MOL     -0.553094
    127 C41         3.9430    4.2310   -3.7750 c3        1 MOL     -0.237047
    128 C42         3.7070    5.2920   -2.7420 ca        1 MOL      0.023777
    129 C43         4.7840    6.0900   -2.3030 ca        1 MOL     -0.130964
    130 C44         2.3950    5.6910   -2.3160 ca        1 MOL     -0.130964
    131 C45         4.5990    7.1340   -1.4710 ca        1 MOL     -0.254389
    132 C46         2.1620    6.7320   -1.4100 ca        1 MOL     -0.254389
    133 C47         3.2940    7.4620   -0.9990 ca        1 MOL      0.321250
    134 O20         3.1670    8.5800   -0.2490 oh        1 MOL     -0.524823
    135 H56         2.2230    2.4850   -1.7810 hn        1 MOL      0.081867
    136 H57         3.9530    2.0480   -4.0480 h1        1 MOL      0.043957
    137 H58         3.3330    4.3080   -4.6700 hc        1 MOL      0.096244
    138 H59         4.9400    4.3070   -4.2320 hc        1 MOL      0.096244
    139 H60         5.8050    5.8390   -2.5510 ha        1 MOL      0.134711
    140 H61         1.5450    5.1500   -2.7050 ha        1 MOL      0.134711
    141 H62         5.3990    7.7790   -1.1340 ha        1 MOL      0.154870
    142 H63         1.1690    6.9610   -1.0570 ha        1 MOL      0.154870
    143 H64         2.2810    8.7650    0.0740 ho        1 MOL      0.379411
    144 N13         6.1370    2.4040   -2.3680 n         1 MOL     -0.514995
    145 C48         7.0640    1.9220   -1.3650 c3        1 MOL      0.234027
    146 C49         7.3210    0.4350   -1.5990 c         1 MOL      0.295751
    147 O21         8.1150   -0.0460   -2.3820 o         1 MOL     -0.465684
    148 C50         8.4140    2.6880   -1.4530 c3        1 MOL     -0.063954
    149 C51         9.4050    2.3140   -0.3720 c3        1 MOL     -0.175814
    150 C52        10.4680    3.4260   -0.1700 c         1 MOL      0.697063
    151 O22        11.5920    3.0230    0.1780 o         1 MOL     -0.736504
    152 O23        10.1650    4.6730   -0.1680 o         1 MOL     -0.736504
    153 H65         6.4160    2.3990   -3.3350 hn        1 MOL      0.268627
    154 H66         6.6810    2.0630   -0.3560 h1        1 MOL      0.062261
    155 H67         8.1380    3.7380   -1.4770 hc        1 MOL      0.013163
    156 H68         8.9440    2.5380   -2.3960 hc        1 MOL      0.013163
    157 H69         9.9620    1.4060   -0.6200 hc        1 MOL      0.035190
    158 H70         8.8930    2.1530    0.5830 hc        1 MOL      0.035190
    159 N14         6.5200   -0.3090   -0.8140 n         1 MOL     -0.347896
    160 C53         6.4300   -1.8410   -0.8720 c3        1 MOL      0.032171
    161 C54         5.8920   -2.3500   -2.2680 c         1 MOL      0.354693
    162 O24         6.2770   -3.4330   -2.7010 o         1 MOL     -0.554780
    163 C55         5.5290   -2.4650    0.1810 c3        1 MOL     -0.160751
    164 C56         6.0930   -2.1110    1.5520 c3        1 MOL     -0.220205
    165 C57         5.4010   -2.6920    2.7320 c         1 MOL      0.659898
    166 O25         4.5680   -1.9710    3.3880 o         1 MOL     -0.693558
    167 O26         5.6490   -3.8130    3.2020 o         1 MOL     -0.693558
    168 H71         5.9740    0.1620   -0.1010 hn        1 MOL      0.243033
    169 H72         7.3870   -2.3330   -0.7060 h1        1 MOL      0.104908
    170 H73         5.5020   -3.5480    0.0150 hc        1 MOL      0.130817
    171 H74         4.5150   -2.0760    0.0660 hc        1 MOL      0.130817
    172 H75         6.0210   -1.0330    1.6680 hc        1 MOL      0.057480
    173 H76         7.1220   -2.4500    1.6200 hc        1 MOL      0.057480
    174 N15         5.1200   -1.5260   -2.9380 n         1 MOL      0.054641
    175 C58         4.7010   -1.7180   -4.3430 c3        1 MOL     -0.138733
    176 H77         4.6800   -2.7830   -4.5730 h1        1 MOL      0.068828
    177 H78         3.7060   -1.2960   -4.4870 h1        1 MOL      0.068828
    178 H79         5.4080   -1.2180   -5.0050 h1        1 MOL      0.068828
    179 H80         4.8950   -0.7140   -2.3880 hn        1 MOL      0.040137
    180 Ca1         3.7090   -4.0010    4.8980 Ca        1 MOL      1.748151
    181 O27         3.7300   -6.1240    3.2060 oh        1 MOL     -0.817836
    182 O28         2.2850   -2.0210    5.9490 oh        1 MOL     -0.817836
    183 H81         3.2450   -6.9060    2.9540 ho        1 MOL      0.386024
    184 H82         1.6820   -2.3800    6.6120 ho        1 MOL      0.386024
    185 H83         4.4570   -6.0790    2.5860 ho        1 MOL      0.386024
    186 H84         1.7720   -1.3510    5.4940 ho        1 MOL      0.386024
    187 O29         5.6700   -2.6930    6.1120 oh        1 MOL     -0.817836
    188 H85         6.5300   -2.9930    6.4140 ho        1 MOL      0.386024
    189 H86         5.8090   -1.7850    5.8330 ho        1 MOL      0.386024
    190 O30         1.9670   -3.6160    2.6370 oh        1 MOL     -0.817836
    191 H87         1.1680   -4.1330    2.7320 ho        1 MOL      0.386024
    192 H88         1.6870   -2.8020    2.2300 ho        1 MOL      0.386024
    193 O31         3.5020   -4.1770    7.6930 oh        1 MOL     -0.817836
    194 H89         3.2200   -3.6960    8.4690 ho        1 MOL      0.386024
    195 H90         4.3290   -4.5910    7.9510 ho        1 MOL      0.386024
    196 O32         2.0530   -5.9410    5.5900 oh        1 MOL     -0.817836
    197 H91         2.1810   -6.5110    6.3390 ho        1 MOL      0.386024
    198 H92         1.2600   -6.2810    5.1660 ho        1 MOL      0.386024
    199 O33         5.3960   -5.9490    5.7700 oh        1 MOL     -0.817836
    200 H93         5.1250   -6.7240    6.2610 ho        1 MOL      0.386024
    201 H94         6.2530   -6.1710    5.4130 ho        1 MOL      0.386024
@<TRIPOS>BOND
     1    1    2 1   
     2    1    4 1   
     3    1    5 1   
     4    1    6 1   
     5    2    3 2   
     6    2    7 1   
     7    7    8 1   
     8    7   15 1   
     9    8    9 1   
    10    8   11 1   
    11    8   16 1   
    12    9   10 2   
    13    9   19 1   
    14   11   12 1   
    15   11   17 1   
    16   11   18 1   
    17   12   13 1   
    18   12   14 1   
    19   19   20 1   
    20   19   27 1   
    21   20   21 1   
    22   20   23 1   
    23   20   28 1   
    24   21   22 2   
    25   21   38 1   
    26   23   24 1   
    27   23   25 1   
    28   23   29 1   
    29   24   26 1   
    30   24   30 1   
    31   24   31 1   
    32   25   32 1   
    33   25   33 1   
    34   25   34 1   
    35   26   35 1   
    36   26   36 1   
    37   26   37 1   
    38   38   39 1   
    39   38   46 1   
    40   39   40 1   
    41   39   42 1   
    42   39   47 1   
    43   40   41 2   
    44   40   50 1   
    45   42   43 1   
    46   42   48 1   
    47   42   49 1   
    48   43   44 1   
    49   43   45 1   
    50   50   51 1   
    51   50   54 1   
    52   51   52 1   
    53   51   55 1   
    54   51   56 1   
    55   52   53 2   
    56   52   57 1   
    57   57   58 1   
    58   57   65 1   
    59   58   59 1   
    60   58   61 1   
    61   58   66 1   
    62   59   60 2   
    63   59   69 1   
    64   61   62 1   
    65   61   67 1   
    66   61   68 1   
    67   62   63 1   
    68   62   64 1   
    69   69   70 1   
    70   69   73 1   
    71   70   71 1   
    72   70   74 1   
    73   70   75 1   
    74   71   72 2   
    75   71   76 1   
    76   76   77 1   
    77   76   85 1   
    78   77   78 1   
    79   77   80 1   
    80   77   86 1   
    81   78   79 2   
    82   78   93 1   
    83   80   81 1   
    84   80   87 1   
    85   80   88 1   
    86   81   82 1   
    87   81   89 1   
    88   81   90 1   
    89   82   83 1   
    90   82   84 2   
    91   83   91 1   
    92   83   92 1   
    93   93   94 1   
    94   93  100 1   
    95   94   95 1   
    96   94   97 1   
    97   94  101 1   
    98   95   96 2   
    99   95  109 1   
   100   97   98 1   
   101   97   99 1   
   102   97  102 1   
   103   98  103 1   
   104   98  104 1   
   105   98  105 1   
   106   99  106 1   
   107   99  107 1   
   108   99  108 1   
   109  109  110 1   
   110  109  117 1   
   111  110  111 1   
   112  110  113 1   
   113  110  118 1   
   114  111  112 2   
   115  111  123 1   
   116  113  114 1   
   117  113  119 1   
   118  113  120 1   
   119  114  115 1   
   120  114  116 2   
   121  115  121 1   
   122  115  122 1   
   123  123  124 1   
   124  123  135 1   
   125  124  125 1   
   126  124  127 1   
   127  124  136 1   
   128  125  126 2   
   129  125  144 1   
   130  127  128 1   
   131  127  137 1   
   132  127  138 1   
   133  128  129 ar  
   134  128  130 ar  
   135  129  131 ar  
   136  129  139 1   
   137  130  132 ar  
   138  130  140 1   
   139  131  133 ar  
   140  131  141 1   
   141  132  133 ar  
   142  132  142 1   
   143  133  134 1   
   144  134  143 1   
   145  144  145 1   
   146  144  153 1   
   147  145  146 1   
   148  145  148 1   
   149  145  154 1   
   150  146  147 2   
   151  146  159 1   
   152  148  149 1   
   153  148  155 1   
   154  148  156 1   
   155  149  150 1   
   156  149  157 1   
   157  149  158 1   
   158  150  151 1   
   159  150  152 1   
   160  159  160 1   
   161  159  168 1   
   162  160  161 1   
   163  160  163 1   
   164  160  169 1   
   165  161  162 2   
   166  161  174 1   
   167  163  164 1   
   168  163  170 1   
   169  163  171 1   
   170  164  165 1   
   171  164  172 1   
   172  164  173 1   
   173  165  166 1   
   174  165  167 1   
   175  174  175 1   
   176  174  179 1   
   177  175  176 1   
   178  175  177 1   
   179  175  178 1   
   180  181  183 1   
   181  181  185 1   
   182  182  184 1   
   183  182  186 1   
   184  187  188 1   
   185  187  189 1   
   186  190  191 1   
   187  190  192 1   
   188  193  194 1   
   189  193  195 1   
   190  196  197 1   
   191  196  198 1   
   192  199  200 1   
   193  199  201 1   
@<TRIPOS>SUBSTRUCTURE
     1 MOL         1 TEMP              0 ****  ****    0 ROOT
