@<TRIPOS>MOLECULE
MOL
  189   185     1     0     0
SMALL
resp


@<TRIPOS>ATOM
      1 C1          9.1530   -0.1590    2.5630 c3        1 MOL     -0.587098
      2 C2          7.9750    0.0530    1.6370 c         1 MOL      0.796758
      3 O1          6.7940    0.0410    2.0030 o         1 MOL     -0.688123
      4 H1          9.4340   -1.2120    2.5570 hc        1 MOL      0.148642
      5 H2          9.9960    0.4430    2.2240 hc        1 MOL      0.148642
      6 H3          8.8780    0.1370    3.5750 hc        1 MOL      0.148642
      7 N1          8.2390    0.2180    0.3240 n         1 MOL     -0.470713
      8 C3          7.3280    0.2670   -0.7880 c3        1 MOL     -0.038813
      9 C4          6.7810   -1.0790   -1.2810 c         1 MOL      0.624137
     10 O2          6.5960   -1.1580   -2.4360 o         1 MOL     -0.408058
     11 C5          7.9300    1.2520   -1.7880 c3        1 MOL     -0.248382
     12 C6          9.1110    0.6630   -2.5320 c         1 MOL      0.754355
     13 O3          8.9280    0.1250   -3.6700 o         1 MOL     -0.649773
     14 O4         10.2530    0.8420   -2.1640 o         1 MOL     -0.649773
     15 H4          9.2130    0.2250    0.0540 hn        1 MOL      0.206302
     16 H5          6.4300    0.7070   -0.3630 h1        1 MOL      0.088916
     17 H6          8.3050    2.1470   -1.3040 hc        1 MOL      0.095941
     18 H7          7.1710    1.5790   -2.4870 hc        1 MOL      0.095941
     19 N2          6.6950   -2.1560   -0.4770 n         1 MOL     -0.560158
     20 C7          6.1200   -3.4530   -0.8490 c3        1 MOL      0.132131
     21 C8          4.6590   -3.4040   -1.4070 c         1 MOL      0.381642
     22 O5          4.4130   -4.1750   -2.3380 o         1 MOL     -0.541187
     23 C9          6.2600   -4.4080    0.4430 c3        1 MOL     -0.000680
     24 C10         7.7470   -4.5820    0.8040 c3        1 MOL      0.039679
     25 C11         7.9140   -5.6200    1.9020 c3        1 MOL     -0.166353
     26 C12         9.3470   -5.9860    2.1290 c3        1 MOL      0.051506
     27 N3          9.7540   -6.7030    3.3760 n4        1 MOL     -0.236442
     28 H8          7.0140   -2.0650    0.4730 hn        1 MOL      0.282457
     29 H9          6.6310   -3.9850   -1.6600 h1        1 MOL      0.083647
     30 H10         5.7350   -5.3470    0.2800 hc        1 MOL      0.015652
     31 H11         5.8180   -3.9230    1.3090 hc        1 MOL      0.015652
     32 H12         8.1290   -3.6220    1.1530 hc        1 MOL      0.009551
     33 H13         8.2730   -4.8360   -0.1190 hc        1 MOL      0.009551
     34 H14         7.3530   -6.5070    1.5940 hc        1 MOL      0.067596
     35 H15         7.3890   -5.3860    2.8200 hc        1 MOL      0.067596
     36 H16         9.8600   -5.0270    2.1660 hx        1 MOL      0.081798
     37 H17         9.8150   -6.5060    1.2930 hx        1 MOL      0.081798
     38 H18        10.6850   -6.5600    3.7550 hn        1 MOL      0.293615
     39 H19         9.1010   -6.5020    4.1240 hn        1 MOL      0.293615
     40 H20         9.6110   -7.6880    3.1910 hn        1 MOL      0.293615
     41 N4          3.7710   -2.5100   -1.0540 n         1 MOL     -0.224132
     42 C13         3.6910   -1.5970    0.0400 c3        1 MOL     -0.033132
     43 C14         3.7560   -0.1260   -0.4800 c         1 MOL     -0.009523
     44 O6          3.9640    0.1250   -1.6650 o         1 MOL     -0.406909
     45 C15         2.4590   -1.8070    0.8940 c3        1 MOL     -0.293976
     46 C16         1.2920   -2.1130    0.0210 c         1 MOL      0.719548
     47 O7          0.9260   -1.2370   -0.8010 o         1 MOL     -0.681582
     48 O8          0.6740   -3.1680    0.1190 o         1 MOL     -0.681582
     49 H21         2.9230   -2.5600   -1.6090 hn        1 MOL      0.349127
     50 H22         4.5280   -1.7360    0.7260 h1        1 MOL      0.140244
     51 H23         2.1720   -0.9360    1.4770 hc        1 MOL      0.064983
     52 H24         2.5980   -2.6460    1.5890 hc        1 MOL      0.064983
     53 N5          3.9000    0.8890    0.4240 n         1 MOL      0.005175
     54 C17         4.0680    2.2850   -0.0390 c3        1 MOL      0.052977
     55 C18         2.7200    3.0030   -0.4450 c         1 MOL      0.556021
     56 O9          1.6420    2.3930   -0.3370 o         1 MOL     -0.553777
     57 H25         3.9190    0.6600    1.4070 hn        1 MOL      0.246345
     58 H26         4.8060    2.4670   -0.8320 h1        1 MOL      0.015195
     59 H27         4.4160    2.7850    0.8610 h1        1 MOL      0.015195
     60 N6          2.8030    4.2090   -0.9750 n         1 MOL     -0.492437
     61 C19         1.6310    5.0810   -1.2530 c3        1 MOL      0.411777
     62 C20         1.8800    6.5480   -0.9180 c         1 MOL      0.356944
     63 O10         3.0350    6.9890   -0.8060 o         1 MOL     -0.517039
     64 C21         1.2040    4.9250   -2.7040 c3        1 MOL     -0.252112
     65 C22         0.6590    3.5440   -3.1840 c         1 MOL      0.709658
     66 O11         1.2960    3.0180   -4.1320 o         1 MOL     -0.686403
     67 O12        -0.2310    3.0120   -2.5530 o         1 MOL     -0.686403
     68 H28         3.7080    4.6430   -1.0310 hn        1 MOL      0.275469
     69 H29         0.7770    4.7390   -0.6620 h1        1 MOL     -0.050400
     70 H30         2.0500    5.2580   -3.3030 hc        1 MOL      0.050601
     71 H31         0.4380    5.6490   -2.9580 hc        1 MOL      0.050601
     72 N7          0.8880    7.4710   -0.8990 n         1 MOL     -0.433051
     73 C23        -0.5920    7.2670   -0.7300 c3        1 MOL     -0.129403
     74 C24        -0.8650    6.4430    0.5650 c         1 MOL      0.666448
     75 O13        -0.2410    6.6080    1.6030 o         1 MOL     -0.529040
     76 H32         1.2440    8.4190   -0.9330 hn        1 MOL      0.321726
     77 H33        -1.0850    6.7880   -1.5700 h1        1 MOL      0.099045
     78 H34        -1.1400    8.1990   -0.5490 h1        1 MOL      0.099045
     79 N8         -1.9110    5.6250    0.4790 n         1 MOL     -0.704996
     80 C25        -2.3310    4.6750    1.5870 c3        1 MOL      0.118890
     81 C26        -1.5930    3.3070    1.6670 c         1 MOL      0.948221
     82 O14        -1.1760    2.8890    0.6060 o         1 MOL     -0.695312
     83 C27        -3.8950    4.3540    1.5260 c3        1 MOL      0.293382
     84 C28        -4.4810    3.4460    2.5990 c3        1 MOL     -0.286086
     85 O15        -4.1240    3.6260    0.2970 oh        1 MOL     -0.665736
     86 H35        -2.3800    5.6180   -0.4180 hn        1 MOL      0.329896
     87 H36        -2.2150    5.0620    2.5950 h1        1 MOL     -0.002964
     88 H37        -4.4600    5.2690    1.6770 h1        1 MOL      0.024924
     89 H38        -4.2830    4.2830   -0.3820 ho        1 MOL      0.417776
     90 H39        -4.3860    3.9910    3.5430 hc        1 MOL      0.070959
     91 H40        -5.5510    3.2880    2.4710 hc        1 MOL      0.070959
     92 H41        -4.0890    2.4310    2.5240 hc        1 MOL      0.070959
     93 N9         -1.5100    2.7850    2.8600 n         1 MOL     -0.432225
     94 C29        -0.9260    1.5560    3.3170 c3        1 MOL     -0.242381
     95 C30        -1.2350    0.3360    2.4130 c         1 MOL      0.295079
     96 O16        -0.7170    0.2490    1.3130 o         1 MOL     -0.401905
     97 C31         0.6390    1.6840    3.4530 c3        1 MOL      0.206640
     98 C32         1.0320    3.0190    4.0530 c3        1 MOL      0.029346
     99 C33         1.2420    0.5450    4.3120 c3        1 MOL     -0.367382
    100 C34         0.6420    3.3310    5.4330 c3        1 MOL     -0.532646
    101 H42        -1.9710    3.2960    3.6100 hn        1 MOL      0.268216
    102 H43        -1.3590    1.4320    4.3060 h1        1 MOL      0.107658
    103 H44         1.1640    1.6760    2.4960 hc        1 MOL     -0.093718
    104 H45         0.5710    3.8330    3.4840 hc        1 MOL      0.044720
    105 H46         2.1070    3.1500    3.9140 hc        1 MOL      0.044720
    106 H47         1.1550   -0.3490    3.6960 hc        1 MOL      0.106016
    107 H48         2.2700    0.7780    4.6210 hc        1 MOL      0.106016
    108 H49         0.7260    0.3900    5.2610 hc        1 MOL      0.106016
    109 H50         0.9880    4.3530    5.6400 hc        1 MOL      0.137130
    110 H51        -0.4220    3.1980    5.6280 hc        1 MOL      0.137130
    111 H52         1.2640    2.7280    6.1010 hc        1 MOL      0.137130
    112 N10        -2.0420   -0.6420    2.9190 n         1 MOL      0.035470
    113 C35        -2.3660   -1.9230    2.3830 c3        1 MOL     -0.494660
    114 C36        -3.8270   -2.0650    2.0120 c         1 MOL      0.655074
    115 O17        -4.2470   -3.0560    1.5170 o         1 MOL     -0.574945
    116 C37        -1.8140   -3.0310    3.3040 c3        1 MOL      0.420938
    117 C38        -2.1880   -2.8800    4.7560 c3        1 MOL     -0.374615
    118 O18        -0.3780   -2.8910    3.1600 oh        1 MOL     -0.567721
    119 H53        -2.3980   -0.4440    3.8510 hn        1 MOL      0.148669
    120 H54        -1.7760   -1.8640    1.4770 h1        1 MOL      0.331132
    121 H55        -1.9720   -4.0220    2.8830 h1        1 MOL      0.014370
    122 H56        -0.2250   -3.2260    2.2730 ho        1 MOL      0.318396
    123 H57        -1.6420   -3.6240    5.3290 hc        1 MOL      0.097162
    124 H58        -1.8120   -1.9040    5.0800 hc        1 MOL      0.097162
    125 H59        -3.2670   -2.8950    4.9280 hc        1 MOL      0.097162
    126 N11        -4.5980   -0.9540    2.1640 n         1 MOL     -0.416131
    127 C39        -6.1230   -0.8980    1.8890 c3        1 MOL     -0.162963
    128 C40        -6.2680   -0.8670    0.3490 c         1 MOL      0.739771
    129 O19        -5.7790    0.0440   -0.3150 o         1 MOL     -0.593086
    130 C41        -6.7000    0.3220    2.6520 c3        1 MOL      0.251743
    131 C42        -8.2210    0.4190    2.4670 c3        1 MOL     -0.159017
    132 O20        -6.5220    0.0750    4.0330 oh        1 MOL     -0.570471
    133 H60        -4.1830   -0.0570    2.3660 hn        1 MOL      0.226399
    134 H61        -6.6720   -1.7310    2.3400 h1        1 MOL      0.112249
    135 H62        -6.3000    1.3120    2.4250 h1        1 MOL      0.050471
    136 H63        -5.5770    0.0960    4.1580 ho        1 MOL      0.345563
    137 H64        -8.4210    0.7220    1.4370 hc        1 MOL      0.052081
    138 H65        -8.7570   -0.5190    2.6320 hc        1 MOL      0.052081
    139 H66        -8.6900    1.1890    3.0830 hc        1 MOL      0.052081
    140 N12        -6.9800   -1.8640   -0.0810 n         1 MOL     -0.394938
    141 C43        -7.2940   -2.1920   -1.5000 c3        1 MOL      0.117715
    142 C44        -6.0500   -2.1900   -2.3870 c         1 MOL      0.462053
    143 O21        -6.0960   -1.6310   -3.5060 o         1 MOL     -0.474585
    144 C45        -8.4870   -1.3950   -1.9890 c3        1 MOL     -0.475573
    145 C46        -9.8330   -1.6090   -1.1260 c3        1 MOL     -0.064461
    146 C47       -10.5380   -2.8940   -1.5190 c3        1 MOL      0.042484
    147 C48       -11.7740   -3.2700   -0.7080 c3        1 MOL     -0.058497
    148 N13       -12.1060   -4.7380   -0.8250 n4        1 MOL     -0.015634
    149 H67        -7.2820   -2.5430    0.6080 hn        1 MOL      0.226797
    150 H68        -7.6490   -3.2120   -1.6380 h1        1 MOL      0.054471
    151 H69        -8.6390   -1.6940   -3.0300 hc        1 MOL      0.190398
    152 H70        -8.1990   -0.3420   -2.0590 hc        1 MOL      0.190398
    153 H71       -10.5600   -0.8160   -1.3060 hc        1 MOL      0.049144
    154 H72        -9.5730   -1.5700   -0.0710 hc        1 MOL      0.049144
    155 H73        -9.8000   -3.7030   -1.5220 hc        1 MOL      0.041379
    156 H74       -10.8760   -2.8320   -2.5560 hc        1 MOL      0.041379
    157 H75       -12.6400   -2.6770   -1.0200 hx        1 MOL      0.073243
    158 H76       -11.6000   -3.1300    0.3590 hx        1 MOL      0.073243
    159 H77       -12.0900   -5.0370   -1.7910 hn        1 MOL      0.122495
    160 H78       -11.4770   -5.3170   -0.2930 hn        1 MOL      0.122495
    161 H79       -12.9800   -5.0100   -0.3990 hn        1 MOL      0.122495
    162 N14        -4.8940   -2.7200   -1.9480 n         1 MOL     -0.614607
    163 C49        -3.5980   -2.2470   -2.3280 c3        1 MOL      0.419420
    164 C50        -2.4950   -2.2650   -1.2150 c         1 MOL      0.270782
    165 O22        -2.1370   -1.2150   -0.6930 o         1 MOL     -0.637283
    166 C51        -3.1400   -2.8270   -3.6860 c3        1 MOL     -0.105319
    167 C52        -1.8590   -2.2480   -4.2900 c3        1 MOL     -0.139340
    168 C53        -1.9200   -0.7460   -4.4490 c         1 MOL      0.763323
    169 O23        -1.3310   -0.0230   -3.6280 o         1 MOL     -0.651122
    170 O24        -2.6730   -0.2680   -5.2940 o         1 MOL     -0.651122
    171 H80        -5.0510   -3.2980   -1.1430 hn        1 MOL      0.285642
    172 H81        -3.6640   -1.1810   -2.5670 h1        1 MOL      0.078354
    173 H82        -3.9760   -2.7390   -4.3750 hc        1 MOL      0.027117
    174 H83        -3.1110   -3.9050   -3.5000 hc        1 MOL      0.027117
    175 H84        -1.6980   -2.7630   -5.2410 hc        1 MOL      0.018287
    176 H85        -0.9910   -2.5000   -3.6810 hc        1 MOL      0.018287
    177 N15        -1.9150   -3.3700   -0.7590 n         1 MOL     -0.103505
    178 C54        -2.1220   -4.8490   -1.0700 c3        1 MOL     -0.276137
    179 H86        -1.3120   -5.4290   -0.6270 h1        1 MOL      0.099753
    180 H87        -3.0740   -5.1790   -0.6530 h1        1 MOL      0.099753
    181 H88        -2.1270   -4.9980   -2.1500 h1        1 MOL      0.099753
    182 H89        -1.1130   -3.1870   -0.1800 hn        1 MOL      0.266343
    183 Ca1        -0.5330    0.9080   -1.1630 Ca        1 MOL      1.764263
    184 O25        -3.2070    1.2810   -1.1320 oh        1 MOL     -1.005508
    185 H90        -3.9810    0.7210   -1.1780 ho        1 MOL      0.487696
    186 H91        -3.4970    2.0510   -0.6440 ho        1 MOL      0.487696
    187 O26         1.6720    0.6560   -2.9080 oh        1 MOL     -1.005508
    188 H92         2.4760    0.3430   -2.4980 ho        1 MOL      0.487696
    189 H93         1.9580    0.9910   -3.7650 ho        1 MOL      0.487696
@<TRIPOS>BOND
     1    1    2 1   
     2    1    4 1   
     3    1    5 1   
     4    1    6 1   
     5    2    3 2   
     6    2    7 1   
     7    7    8 1   
     8    7   15 1   
     9    8    9 1   
    10    8   11 1   
    11    8   16 1   
    12    9   10 2   
    13    9   19 1   
    14   11   12 1   
    15   11   17 1   
    16   11   18 1   
    17   12   13 1   
    18   12   14 1   
    19   19   20 1   
    20   19   28 1   
    21   20   21 1   
    22   20   23 1   
    23   20   29 1   
    24   21   22 2   
    25   21   41 1   
    26   23   24 1   
    27   23   30 1   
    28   23   31 1   
    29   24   25 1   
    30   24   32 1   
    31   24   33 1   
    32   25   26 1   
    33   25   34 1   
    34   25   35 1   
    35   26   27 1   
    36   26   36 1   
    37   26   37 1   
    38   27   38 1   
    39   27   39 1   
    40   27   40 1   
    41   41   42 1   
    42   41   49 1   
    43   42   43 1   
    44   42   45 1   
    45   42   50 1   
    46   43   44 2   
    47   43   53 1   
    48   45   46 1   
    49   45   51 1   
    50   45   52 1   
    51   46   47 1   
    52   46   48 1   
    53   53   54 1   
    54   53   57 1   
    55   54   55 1   
    56   54   58 1   
    57   54   59 1   
    58   55   56 2   
    59   55   60 1   
    60   60   61 1   
    61   60   68 1   
    62   61   62 1   
    63   61   64 1   
    64   61   69 1   
    65   62   63 2   
    66   62   72 1   
    67   64   65 1   
    68   64   70 1   
    69   64   71 1   
    70   65   66 1   
    71   65   67 1   
    72   72   73 1   
    73   72   76 1   
    74   73   74 1   
    75   73   77 1   
    76   73   78 1   
    77   74   75 2   
    78   74   79 1   
    79   79   80 1   
    80   79   86 1   
    81   80   81 1   
    82   80   83 1   
    83   80   87 1   
    84   81   82 2   
    85   81   93 1   
    86   83   84 1   
    87   83   85 1   
    88   83   88 1   
    89   84   90 1   
    90   84   91 1   
    91   84   92 1   
    92   85   89 1   
    93   93   94 1   
    94   93  101 1   
    95   94   95 1   
    96   94   97 1   
    97   94  102 1   
    98   95   96 2   
    99   95  112 1   
   100   97   98 1   
   101   97   99 1   
   102   97  103 1   
   103   98  100 1   
   104   98  104 1   
   105   98  105 1   
   106   99  106 1   
   107   99  107 1   
   108   99  108 1   
   109  100  109 1   
   110  100  110 1   
   111  100  111 1   
   112  112  113 1   
   113  112  119 1   
   114  113  114 1   
   115  113  116 1   
   116  113  120 1   
   117  114  115 2   
   118  114  126 1   
   119  116  117 1   
   120  116  118 1   
   121  116  121 1   
   122  117  123 1   
   123  117  124 1   
   124  117  125 1   
   125  118  122 1   
   126  126  127 1   
   127  126  133 1   
   128  127  128 1   
   129  127  130 1   
   130  127  134 1   
   131  128  129 2   
   132  128  140 1   
   133  130  131 1   
   134  130  132 1   
   135  130  135 1   
   136  131  137 1   
   137  131  138 1   
   138  131  139 1   
   139  132  136 1   
   140  140  141 1   
   141  140  149 1   
   142  141  142 1   
   143  141  144 1   
   144  141  150 1   
   145  142  143 2   
   146  142  162 1   
   147  144  145 1   
   148  144  151 1   
   149  144  152 1   
   150  145  146 1   
   151  145  153 1   
   152  145  154 1   
   153  146  147 1   
   154  146  155 1   
   155  146  156 1   
   156  147  148 1   
   157  147  157 1   
   158  147  158 1   
   159  148  159 1   
   160  148  160 1   
   161  148  161 1   
   162  162  163 1   
   163  162  171 1   
   164  163  164 1   
   165  163  166 1   
   166  163  172 1   
   167  164  165 2   
   168  164  177 1   
   169  166  167 1   
   170  166  173 1   
   171  166  174 1   
   172  167  168 1   
   173  167  175 1   
   174  167  176 1   
   175  168  169 1   
   176  168  170 1   
   177  177  178 1   
   178  177  182 1   
   179  178  179 1   
   180  178  180 1   
   181  178  181 1   
   182  184  185 1   
   183  184  186 1   
   184  187  188 1   
   185  187  189 1   
@<TRIPOS>SUBSTRUCTURE
     1 MOL         1 TEMP              0 ****  ****    0 ROOT
