@<TRIPOS>MOLECULE
MOL
  181   177     1     0     0
SMALL
resp


@<TRIPOS>ATOM
      1 C1          4.1220   -3.3770    3.3440 c3        1 MOL     -0.445821
      2 C2          5.3620   -2.6420    2.8310 c         1 MOL      0.606637
      3 O1          5.4020   -1.4130    2.6360 o         1 MOL     -0.571381
      4 H1          4.2700   -4.4520    3.2460 hc        1 MOL      0.121466
      5 H2          3.9590   -3.1280    4.3930 hc        1 MOL      0.121466
      6 H3          3.2520   -3.0750    2.7610 hc        1 MOL      0.121466
      7 N1          6.4510   -3.4300    2.5940 n         1 MOL     -0.431810
      8 C3          7.8110   -2.8050    2.1920 c3        1 MOL      0.164105
      9 C4          7.8240   -2.3290    0.7160 c         1 MOL      0.548837
     10 O2          7.0920   -2.8380   -0.1020 o         1 MOL     -0.460695
     11 C5          8.9840   -3.7580    2.5680 c3        1 MOL     -0.465256
     12 C6          8.7220   -5.2900    2.2180 c         1 MOL      0.759136
     13 O3          8.9820   -5.7240    1.0680 o         1 MOL     -0.719303
     14 O4          8.1860   -6.0670    3.0340 o         1 MOL     -0.719303
     15 H4          6.4670   -4.4170    2.8320 hn        1 MOL      0.262281
     16 H5          7.9320   -1.9480    2.8680 h1        1 MOL      0.041799
     17 H6          9.1140   -3.6300    3.6400 hc        1 MOL      0.081043
     18 H7          9.9010   -3.4330    2.0790 hc        1 MOL      0.081043
     19 N2          8.5660   -1.2310    0.4490 n         1 MOL     -0.525358
     20 C7          8.3250   -0.4290   -0.7360 c3        1 MOL      0.265456
     21 C8          7.0250    0.3710   -0.6670 c         1 MOL      0.559130
     22 O5          6.9750    1.3630    0.0760 o         1 MOL     -0.596332
     23 C9          9.6450    0.3550   -1.0590 c3        1 MOL     -0.421826
     24 H8          8.9760   -0.8230    1.2710 hn        1 MOL      0.277548
     25 H9          8.1590   -1.1720   -1.5120 h1        1 MOL      0.032929
     26 H10        10.2410   -0.2410   -1.7500 hc        1 MOL      0.100090
     27 H11         9.4880    1.3220   -1.5320 hc        1 MOL      0.100090
     28 H12        10.2370    0.4830   -0.1610 hc        1 MOL      0.100090
     29 N3          5.9830   -0.1610   -1.2370 n         1 MOL     -0.598794
     30 C10         4.5820    0.3530   -1.1330 c3        1 MOL      0.436465
     31 C11         3.9800    0.8850   -2.4310 c         1 MOL      0.456006
     32 O6          2.7660    0.9670   -2.5790 o         1 MOL     -0.512542
     33 C12         3.6760   -0.6970   -0.4280 c3        1 MOL     -0.400294
     34 C13         3.4910   -1.9080   -1.2780 c         1 MOL      0.771205
     35 O7          2.6810   -2.7450   -0.7780 o         1 MOL     -0.725138
     36 O8          4.0310   -2.0550   -2.4200 o         1 MOL     -0.725138
     37 H13         6.1080   -0.9870   -1.8070 hn        1 MOL      0.261513
     38 H14         4.4400    1.2560   -0.5380 h1        1 MOL      0.002684
     39 H15         2.7490   -0.2400   -0.0760 hc        1 MOL      0.134394
     40 H16         4.2190   -1.1020    0.4200 hc        1 MOL      0.134394
     41 N4          4.8310    1.2840   -3.3240 n         1 MOL     -0.367602
     42 C14         4.3490    2.0730   -4.5090 c3        1 MOL     -0.080531
     43 C15         3.9790    3.5110   -4.0110 c         1 MOL      0.481435
     44 O9          4.9160    4.2580   -3.6440 o         1 MOL     -0.524022
     45 H17         5.7530    1.4520   -2.9610 hn        1 MOL      0.246339
     46 H18         3.5250    1.6320   -5.0750 h1        1 MOL      0.087680
     47 H19         5.2120    2.0770   -5.1820 h1        1 MOL      0.087680
     48 N5          2.6890    3.9140   -4.0840 n         1 MOL     -0.499018
     49 C16         2.3770    5.2430   -3.5110 c3        1 MOL      0.054845
     50 C17         2.4480    5.0800   -1.9650 c         1 MOL      0.578115
     51 O10         2.2910    3.9870   -1.4440 o         1 MOL     -0.409642
     52 C18         1.0010    5.6900   -4.0220 c3        1 MOL     -0.145201
     53 C19         0.7230    5.8720   -5.5170 c         1 MOL      0.580769
     54 N6          1.5000    6.7390   -6.1310 n         1 MOL     -0.697191
     55 O11        -0.1340    5.2490   -6.0860 o         1 MOL     -0.521221
     56 H20         1.9570    3.2830   -4.3790 hn        1 MOL      0.353805
     57 H21         3.0360    6.0360   -3.8820 h1        1 MOL      0.029691
     58 H22         0.7160    6.5980   -3.4900 hc        1 MOL      0.058387
     59 H23         0.2340    5.0000   -3.6730 hc        1 MOL      0.058387
     60 H24         2.0120    7.3850   -5.5520 hn        1 MOL      0.331163
     61 H25         1.2550    6.9420   -7.0960 hn        1 MOL      0.331163
     62 N7          2.5070    6.2240   -1.2490 n         1 MOL     -0.569623
     63 C20         2.3130    6.3620    0.2040 c3        1 MOL     -0.038635
     64 C21         0.8720    6.5580    0.7360 c         1 MOL      0.543140
     65 O12        -0.2090    6.6390    0.0660 o         1 MOL     -0.504671
     66 H26         2.6360    7.0740   -1.7870 hn        1 MOL      0.316558
     67 H27         2.8700    7.2590    0.4850 h1        1 MOL      0.094584
     68 H28         2.6510    5.4570    0.7160 h1        1 MOL      0.094584
     69 N8          0.8540    6.6200    2.0680 n         1 MOL     -0.394922
     70 C22        -0.3890    6.8230    2.8310 c3        1 MOL     -0.278313
     71 C23        -1.2890    5.6330    3.0340 c         1 MOL      0.621796
     72 O13        -2.4130    5.7810    3.5880 o         1 MOL     -0.567922
     73 C24        -0.0270    7.3560    4.1870 c3        1 MOL      0.459533
     74 C25         0.8470    6.3840    5.0760 c3        1 MOL     -0.444568
     75 O14         0.5370    8.6870    4.0940 oh        1 MOL     -0.630750
     76 H29         1.7360    6.6780    2.5410 hn        1 MOL      0.218673
     77 H30        -0.9710    7.6320    2.3930 h1        1 MOL      0.154962
     78 H31        -0.9930    7.4300    4.6890 h1        1 MOL      0.046057
     79 H32         1.4230    8.5330    3.7590 ho        1 MOL      0.380866
     80 H33         0.3290    5.4870    5.4190 hc        1 MOL      0.110028
     81 H34         1.7260    6.0260    4.5320 hc        1 MOL      0.110028
     82 H35         1.2200    6.8390    5.9860 hc        1 MOL      0.110028
     83 N9         -0.7570    4.4350    2.6690 n         1 MOL     -0.317857
     84 C26        -1.3130    3.0770    2.8650 c3        1 MOL     -0.247602
     85 C27        -1.1040    2.1760    1.6900 c         1 MOL      0.780810
     86 O15        -0.0600    2.1350    1.0580 o         1 MOL     -0.531860
     87 C28        -0.7660    2.5210    4.1690 c3        1 MOL      0.086644
     88 C29        -1.3220    3.1400    5.4260 c3        1 MOL      0.157098
     89 C30        -0.8970    1.0080    4.3000 c3        1 MOL     -0.255019
     90 C31        -0.5250    2.9710    6.7800 c3        1 MOL     -0.082717
     91 H36         0.1760    4.3770    2.2850 hn        1 MOL      0.242512
     92 H37        -2.3960    3.0350    3.0080 h1        1 MOL      0.103953
     93 H38         0.3100    2.7200    4.2500 hc        1 MOL      0.040906
     94 H39        -2.2910    2.7000    5.6650 hc        1 MOL     -0.041462
     95 H40        -1.3890    4.2050    5.2030 hc        1 MOL     -0.041462
     96 H41        -1.8920    0.5600    4.4120 hc        1 MOL      0.071169
     97 H42        -0.2720    0.4330    3.6220 hc        1 MOL      0.071169
     98 H43        -0.4310    0.8130    5.2700 hc        1 MOL      0.071169
     99 H44        -0.7130    1.9410    7.0940 hc        1 MOL      0.011166
    100 H45         0.5570    3.0220    6.7390 hc        1 MOL      0.011166
    101 H46        -0.9680    3.6750    7.4870 hc        1 MOL      0.011166
    102 N10        -2.0740    1.3340    1.2940 n         1 MOL     -0.747798
    103 C32        -1.9740    0.2380    0.2920 c3        1 MOL      0.238312
    104 C33        -3.2970    0.0380   -0.4440 c         1 MOL      0.371216
    105 O16        -3.4690   -0.8900   -1.2490 o         1 MOL     -0.441211
    106 C34        -1.5920   -1.0590    1.1230 c3        1 MOL      0.174005
    107 C35        -0.9540   -2.1230    0.2990 c         1 MOL      0.540620
    108 O17        -0.6740   -2.0520   -0.8770 o         1 MOL     -0.720319
    109 O18        -0.8020   -3.2350    0.8490 o         1 MOL     -0.720319
    110 H47        -2.8340    1.3310    1.9530 hn        1 MOL      0.320720
    111 H48        -1.1090    0.4100   -0.3470 h1        1 MOL      0.104621
    112 H49        -2.4660   -1.5680    1.5170 hc        1 MOL     -0.038290
    113 H50        -0.8970   -0.8140    1.9160 hc        1 MOL     -0.038290
    114 N11        -4.3620    0.7170    0.1090 n         1 MOL     -0.369960
    115 C36        -5.7760    0.6540   -0.2760 c3        1 MOL      0.175109
    116 C37        -6.2980   -0.7680    0.0890 c         1 MOL      0.261177
    117 O19        -6.0850   -1.0910    1.2400 o         1 MOL     -0.476148
    118 C38        -6.6020    1.8630    0.2660 c3        1 MOL     -0.196769
    119 C39        -8.0020    1.7930   -0.1630 ca        1 MOL      0.012870
    120 C40        -8.3090    2.2380   -1.4380 ca        1 MOL     -0.119958
    121 C41        -8.9910    1.0280    0.5410 ca        1 MOL     -0.119958
    122 C42        -9.5640    2.0190   -2.0300 ca        1 MOL     -0.131032
    123 C43       -10.2720    0.8820    0.0730 ca        1 MOL     -0.131032
    124 C44       -10.5070    1.3080   -1.2890 ca        1 MOL     -0.110452
    125 H51        -4.1220    1.3800    0.8240 hn        1 MOL      0.207307
    126 H52        -5.7040    0.7350   -1.3670 h1        1 MOL      0.030293
    127 H53        -6.1110    2.7600   -0.1030 hc        1 MOL      0.097701
    128 H54        -6.5260    1.9000    1.3570 hc        1 MOL      0.097701
    129 H55        -7.5680    2.7110   -2.0560 ha        1 MOL      0.116996
    130 H56        -8.7100    0.6830    1.5330 ha        1 MOL      0.116996
    131 H57        -9.8660    2.3260   -3.0230 ha        1 MOL      0.122606
    132 H58       -11.0090    0.4170    0.7170 ha        1 MOL      0.122606
    133 H59       -11.4450    1.1520   -1.8080 ha        1 MOL      0.096001
    134 N12        -7.0450   -1.5420   -0.7630 n         1 MOL      0.121277
    135 C45        -7.8670   -2.6540   -0.3400 c3        1 MOL      0.070497
    136 C46        -6.9790   -3.7700    0.2680 c         1 MOL      0.327858
    137 O20        -7.5160   -4.6010    1.0550 o         1 MOL     -0.533049
    138 C47        -8.5670   -3.1390   -1.6280 c3        1 MOL     -0.071666
    139 C48        -8.5820   -1.8940   -2.5530 c3        1 MOL      0.053665
    140 C49        -7.3270   -1.1120   -2.1410 c3        1 MOL     -0.099682
    141 H60        -8.5830   -2.2550    0.3700 h1        1 MOL      0.028163
    142 H61        -8.0230   -3.8970   -2.1850 hc        1 MOL      0.038921
    143 H62        -9.5780   -3.4700   -1.3850 hc        1 MOL      0.038921
    144 H63        -8.7130   -2.1830   -3.5950 hc        1 MOL     -0.009902
    145 H64        -9.4690   -1.2760   -2.3920 hc        1 MOL     -0.009902
    146 H65        -6.4910   -1.4470   -2.7520 h1        1 MOL      0.062077
    147 H66        -7.5640   -0.0480   -2.2160 h1        1 MOL      0.062077
    148 N13        -5.6950   -3.7820   -0.1010 n         1 MOL     -0.292084
    149 C50        -4.5940   -4.7280    0.2450 c3        1 MOL      0.013512
    150 C51        -4.2250   -4.7130    1.7320 c         1 MOL      0.303096
    151 O21        -3.5670   -5.5590    2.3250 o         1 MOL     -0.534193
    152 C52        -3.3630   -4.3080   -0.5860 c3        1 MOL      0.128020
    153 C53        -3.6770   -4.4430   -2.0760 c3        1 MOL     -0.048729
    154 C54        -2.4170   -4.2300   -2.9490 c         1 MOL      0.680688
    155 O22        -2.6100   -3.7820   -4.0860 o         1 MOL     -0.703398
    156 O23        -1.2880   -4.6800   -2.6490 o         1 MOL     -0.703398
    157 H67        -5.2310   -3.0530   -0.6270 hn        1 MOL      0.163284
    158 H68        -4.8560   -5.7730    0.0480 h1        1 MOL      0.083107
    159 H69        -2.5450   -5.0030   -0.4270 hc        1 MOL     -0.007034
    160 H70        -3.1330   -3.2750   -0.3590 hc        1 MOL     -0.007034
    161 H71        -4.4570   -3.7410   -2.3900 hc        1 MOL     -0.024219
    162 H72        -3.9960   -5.4720   -2.2180 hc        1 MOL     -0.024219
    163 N14        -4.6130   -3.6620    2.4670 n         1 MOL      0.000764
    164 C55        -4.4450   -3.4430    3.9380 c3        1 MOL     -0.235788
    165 H73        -5.1940   -2.7330    4.2870 h1        1 MOL      0.085459
    166 H74        -4.5680   -4.3890    4.4640 h1        1 MOL      0.085459
    167 H75        -3.4490   -3.0440    4.1350 h1        1 MOL      0.085459
    168 H76        -5.1720   -2.9720    1.9780 hn        1 MOL      0.140422
    169 Ca1         0.7410   -4.2900   -1.1430 Ca        1 MOL      1.754573
    170 O24        -0.4440   -6.8010   -0.4270 oh        1 MOL     -0.862376
    171 H77        -0.0580   -7.4410    0.1670 ho        1 MOL      0.418936
    172 H78        -1.0980   -7.2980   -0.9180 ho        1 MOL      0.418936
    173 O25         1.9000   -3.9680   -3.5220 oh        1 MOL     -0.862376
    174 H79         2.3890   -3.1500   -3.5140 ho        1 MOL      0.418936
    175 H80         2.5100   -4.6160   -3.8740 ho        1 MOL      0.418936
    176 O26         2.7750   -6.1530   -1.7830 oh        1 MOL     -0.862376
    177 H81         3.0160   -7.0520   -2.0150 ho        1 MOL      0.418936
    178 H82         3.5870   -5.7710   -1.4510 ho        1 MOL      0.418936
    179 O27         1.7940   -5.2990    1.1160 oh        1 MOL     -0.862376
    180 H83         1.5150   -5.1370    2.0120 ho        1 MOL      0.418936
    181 H84         2.0040   -6.2360    1.0910 ho        1 MOL      0.418936
@<TRIPOS>BOND
     1    1    2 1   
     2    1    4 1   
     3    1    5 1   
     4    1    6 1   
     5    2    3 2   
     6    2    7 1   
     7    7    8 1   
     8    7   15 1   
     9    8    9 1   
    10    8   11 1   
    11    8   16 1   
    12    9   10 2   
    13    9   19 1   
    14   11   12 1   
    15   11   17 1   
    16   11   18 1   
    17   12   13 1   
    18   12   14 1   
    19   19   20 1   
    20   19   24 1   
    21   20   21 1   
    22   20   23 1   
    23   20   25 1   
    24   21   22 2   
    25   21   29 1   
    26   23   26 1   
    27   23   27 1   
    28   23   28 1   
    29   29   30 1   
    30   29   37 1   
    31   30   31 1   
    32   30   33 1   
    33   30   38 1   
    34   31   32 2   
    35   31   41 1   
    36   33   34 1   
    37   33   39 1   
    38   33   40 1   
    39   34   35 1   
    40   34   36 1   
    41   41   42 1   
    42   41   45 1   
    43   42   43 1   
    44   42   46 1   
    45   42   47 1   
    46   43   44 2   
    47   43   48 1   
    48   48   49 1   
    49   48   56 1   
    50   49   50 1   
    51   49   52 1   
    52   49   57 1   
    53   50   51 2   
    54   50   62 1   
    55   52   53 1   
    56   52   58 1   
    57   52   59 1   
    58   53   54 1   
    59   53   55 2   
    60   54   60 1   
    61   54   61 1   
    62   62   63 1   
    63   62   66 1   
    64   63   64 1   
    65   63   67 1   
    66   63   68 1   
    67   64   65 2   
    68   64   69 1   
    69   69   70 1   
    70   69   76 1   
    71   70   71 1   
    72   70   73 1   
    73   70   77 1   
    74   71   72 2   
    75   71   83 1   
    76   73   74 1   
    77   73   75 1   
    78   73   78 1   
    79   74   80 1   
    80   74   81 1   
    81   74   82 1   
    82   75   79 1   
    83   83   84 1   
    84   83   91 1   
    85   84   85 1   
    86   84   87 1   
    87   84   92 1   
    88   85   86 2   
    89   85  102 1   
    90   87   88 1   
    91   87   89 1   
    92   87   93 1   
    93   88   90 1   
    94   88   94 1   
    95   88   95 1   
    96   89   96 1   
    97   89   97 1   
    98   89   98 1   
    99   90   99 1   
   100   90  100 1   
   101   90  101 1   
   102  102  103 1   
   103  102  110 1   
   104  103  104 1   
   105  103  106 1   
   106  103  111 1   
   107  104  105 2   
   108  104  114 1   
   109  106  107 1   
   110  106  112 1   
   111  106  113 1   
   112  107  108 1   
   113  107  109 1   
   114  114  115 1   
   115  114  125 1   
   116  115  116 1   
   117  115  118 1   
   118  115  126 1   
   119  116  117 2   
   120  116  134 1   
   121  118  119 1   
   122  118  127 1   
   123  118  128 1   
   124  119  120 ar  
   125  119  121 ar  
   126  120  122 ar  
   127  120  129 1   
   128  121  123 ar  
   129  121  130 1   
   130  122  124 ar  
   131  122  131 1   
   132  123  124 ar  
   133  123  132 1   
   134  124  133 1   
   135  134  135 1   
   136  134  140 1   
   137  135  136 1   
   138  135  138 1   
   139  135  141 1   
   140  136  137 2   
   141  136  148 1   
   142  138  139 1   
   143  138  142 1   
   144  138  143 1   
   145  139  140 1   
   146  139  144 1   
   147  139  145 1   
   148  140  146 1   
   149  140  147 1   
   150  148  149 1   
   151  148  157 1   
   152  149  150 1   
   153  149  152 1   
   154  149  158 1   
   155  150  151 2   
   156  150  163 1   
   157  152  153 1   
   158  152  159 1   
   159  152  160 1   
   160  153  154 1   
   161  153  161 1   
   162  153  162 1   
   163  154  155 1   
   164  154  156 1   
   165  163  164 1   
   166  163  168 1   
   167  164  165 1   
   168  164  166 1   
   169  164  167 1   
   170  170  171 1   
   171  170  172 1   
   172  173  174 1   
   173  173  175 1   
   174  176  177 1   
   175  176  178 1   
   176  179  180 1   
   177  179  181 1   
@<TRIPOS>SUBSTRUCTURE
     1 MOL         1 TEMP              0 ****  ****    0 ROOT
