@<TRIPOS>MOLECULE
MOL
  192   187     1     0     0
SMALL
resp


@<TRIPOS>ATOM
      1 C1          5.0380    3.5840   -3.9870 c3        1 MOL     -0.317897
      2 C2          5.6600    2.6110   -2.9280 c         1 MOL      0.794757
      3 O1          5.0090    2.3510   -1.9340 o         1 MOL     -0.695255
      4 H1          5.8230    4.2110   -4.4090 hc        1 MOL      0.076594
      5 H2          4.5690    3.0050   -4.7830 hc        1 MOL      0.076594
      6 H3          4.2890    4.2140   -3.5070 hc        1 MOL      0.076594
      7 N1          6.8200    2.0510   -3.1180 n         1 MOL     -0.701182
      8 C3          7.4130    0.9980   -2.2700 c3        1 MOL      0.270375
      9 C4          6.3820   -0.0160   -1.8010 c         1 MOL      0.265290
     10 O2          5.8810    0.1400   -0.6520 o         1 MOL     -0.412393
     11 C5          8.3580    1.4890   -1.2330 c3        1 MOL      0.011307
     12 C6          7.9370    2.6690   -0.3830 c         1 MOL      0.664134
     13 O3          7.1470    2.4030    0.5290 o         1 MOL     -0.729942
     14 O4          8.3980    3.8420   -0.5640 o         1 MOL     -0.729942
     15 H4          7.3430    2.3360   -3.9390 hn        1 MOL      0.327065
     16 H5          8.0510    0.3520   -2.8720 h1        1 MOL     -0.001141
     17 H6          9.2740    1.7960   -1.7400 hc        1 MOL     -0.010082
     18 H7          8.7480    0.6850   -0.5930 hc        1 MOL     -0.010082
     19 N2          5.9570   -0.8040   -2.8200 n         1 MOL     -0.372752
     20 C7          5.1190   -1.9980   -2.7300 c3        1 MOL      0.058135
     21 C8          5.6140   -3.0880   -1.8000 c         1 MOL      0.316893
     22 O5          5.7660   -4.2590   -2.2520 o         1 MOL     -0.563117
     23 C9          3.7030   -1.5330   -2.4260 c3        1 MOL      0.246915
     24 C10         2.7270   -2.7650   -2.6940 c3        1 MOL      0.225627
     25 C11         3.1360   -0.2760   -3.0730 c3        1 MOL     -0.211278
     26 C12         2.5400   -3.1820   -4.1440 c3        1 MOL     -0.368817
     27 H8          6.2690   -0.5240   -3.7380 hn        1 MOL      0.268940
     28 H9          5.1240   -2.3820   -3.7510 h1        1 MOL      0.033074
     29 H10         3.7410   -1.4260   -1.3440 hc        1 MOL     -0.100823
     30 H11         1.8060   -2.3770   -2.2620 hc        1 MOL     -0.036185
     31 H12         3.0860   -3.5710   -2.0490 hc        1 MOL     -0.036185
     32 H13         3.3450   -0.1960   -4.1420 hc        1 MOL      0.031364
     33 H14         2.0540   -0.3690   -2.9720 hc        1 MOL      0.031364
     34 H15         3.5390    0.5530   -2.4930 hc        1 MOL      0.031364
     35 H16         1.9880   -2.4140   -4.6960 hc        1 MOL      0.067771
     36 H17         3.4940   -3.4890   -4.5720 hc        1 MOL      0.067771
     37 H18         1.9590   -4.0970   -4.0880 hc        1 MOL      0.067771
     38 N3          5.9310   -2.8190   -0.5840 n         1 MOL      0.021383
     39 C13         6.4190   -3.8310    0.3600 c3        1 MOL      0.007319
     40 C14         5.4030   -4.9130    0.7350 c         1 MOL      0.531073
     41 O6          5.6890   -6.1070    0.8110 o         1 MOL     -0.574229
     42 C15         7.0090   -3.1290    1.5150 c3        1 MOL     -0.112808
     43 C16         8.2160   -2.2400    1.1930 c         1 MOL      0.700132
     44 O7          8.8680   -2.4960    0.1050 o         1 MOL     -0.712704
     45 O8          8.3430   -1.2180    1.8750 o         1 MOL     -0.712704
     46 H19         5.7010   -1.9010   -0.2410 hn        1 MOL      0.156363
     47 H20         7.2520   -4.3160   -0.1420 h1        1 MOL      0.050979
     48 H21         7.4030   -3.9420    2.1190 hc        1 MOL      0.015155
     49 H22         6.1810   -2.6060    2.0000 hc        1 MOL      0.015155
     50 N4          4.0670   -4.7080    0.9850 n         1 MOL     -0.458506
     51 C17         3.3630   -3.4230    1.1780 c3        1 MOL      0.147116
     52 C18         2.1470   -3.5540    2.0720 c         1 MOL      0.514717
     53 O9          1.4760   -4.6360    1.9470 o         1 MOL     -0.592578
     54 H23         3.5330   -5.5310    1.1910 hn        1 MOL      0.290454
     55 H24         2.9570   -3.0290    0.2390 h1        1 MOL     -0.013974
     56 H25         4.0490   -2.6860    1.6040 h1        1 MOL     -0.013974
     57 N5          1.7450   -2.6130    2.8980 n         1 MOL     -0.391993
     58 C19         2.1000   -1.1920    3.0260 c3        1 MOL      0.079685
     59 C20         2.1890   -0.5080    1.6580 c         1 MOL      0.720339
     60 O10         3.2510   -0.2740    1.1250 o         1 MOL     -0.607060
     61 C21         3.2710   -0.9440    4.0110 c3        1 MOL     -0.469969
     62 C22         3.1260   -1.8090    5.2990 c         1 MOL      0.798518
     63 O11         2.4320   -1.3020    6.1700 o         1 MOL     -0.743714
     64 O12         3.7520   -2.8910    5.4860 o         1 MOL     -0.743714
     65 H26         0.8800   -2.9160    3.3210 hn        1 MOL      0.273528
     66 H27         1.2990   -0.6560    3.5410 h1        1 MOL      0.080593
     67 H28         3.2920    0.1140    4.2900 hc        1 MOL      0.126523
     68 H29         4.2410   -1.2290    3.6120 hc        1 MOL      0.126523
     69 N6          1.1080   -0.3450    0.8220 n         1 MOL     -0.521507
     70 C23        -0.3560   -0.7610    1.0580 c3        1 MOL     -0.256917
     71 C24        -0.7490   -2.0800    0.3460 c         1 MOL      0.790503
     72 O13        -0.2290   -2.3350   -0.7390 o         1 MOL     -0.543678
     73 H30         1.2970   -0.0470   -0.1250 hn        1 MOL      0.332006
     74 H31        -0.9180    0.0350    0.5720 h1        1 MOL      0.117756
     75 H32        -0.5380   -0.7760    2.1450 h1        1 MOL      0.117756
     76 N7         -1.6920   -2.8880    0.7910 n         1 MOL     -0.735517
     77 C25        -2.0240   -4.1370    0.1710 c3        1 MOL      0.060675
     78 C26        -2.7580   -4.0580   -1.1840 c         1 MOL      0.324580
     79 O14        -2.8830   -5.1030   -1.8100 o         1 MOL     -0.509994
     80 C27        -2.8170   -5.0980    1.0680 c3        1 MOL      0.199535
     81 C28        -3.9190   -4.4270    1.9050 c3        1 MOL     -0.017291
     82 C29        -5.1260   -4.0090    1.0720 c         1 MOL      0.566949
     83 N8         -5.9840   -4.9010    0.8130 n         1 MOL     -0.642070
     84 O15        -5.3070   -2.8520    0.6820 o         1 MOL     -0.561661
     85 H33        -2.0370   -2.7510    1.7330 hn        1 MOL      0.347464
     86 H34        -1.0630   -4.6430    0.0900 h1        1 MOL      0.124853
     87 H35        -2.0910   -5.4860    1.7880 hc        1 MOL     -0.033464
     88 H36        -3.1460   -5.9990    0.5420 hc        1 MOL     -0.033464
     89 H37        -3.6230   -3.5580    2.4850 hc        1 MOL     -0.004674
     90 H38        -4.2830   -5.2170    2.5640 hc        1 MOL     -0.004674
     91 H39        -5.9620   -5.7610    1.3420 hn        1 MOL      0.331417
     92 H40        -6.7810   -4.6520    0.2350 hn        1 MOL      0.331417
     93 N9         -3.1640   -2.8590   -1.6870 n         1 MOL     -0.042058
     94 C30        -3.7540   -2.6780   -3.1150 c3        1 MOL     -0.235816
     95 C31        -5.1670   -1.9440   -3.1050 c         1 MOL      0.573913
     96 O16        -5.8100   -1.9200   -4.1580 o         1 MOL     -0.559125
     97 C32        -2.8600   -1.7700   -3.9730 c3        1 MOL      0.308099
     98 C33        -1.6390   -2.6940   -4.2810 c3        1 MOL     -0.306060
     99 C34        -2.4260   -0.3640   -3.4570 c3        1 MOL     -0.306060
    100 H41        -3.0920   -2.0490   -1.0760 hn        1 MOL      0.159777
    101 H42        -3.9310   -3.6730   -3.5320 h1        1 MOL      0.128603
    102 H43        -3.4320   -1.7260   -4.9030 hc        1 MOL     -0.013953
    103 H44        -1.1490   -2.2710   -5.1580 hc        1 MOL      0.073143
    104 H45        -1.0710   -2.7660   -3.3550 hc        1 MOL      0.073143
    105 H46        -1.9170   -3.6880   -4.6290 hc        1 MOL      0.073143
    106 H47        -1.7870   -0.4770   -2.5810 hc        1 MOL      0.073143
    107 H48        -2.0780    0.3550   -4.2050 hc        1 MOL      0.073143
    108 H49        -3.3360    0.1230   -3.1180 hc        1 MOL      0.073143
    109 N10        -5.5840   -1.4310   -1.9280 n         1 MOL     -0.442178
    110 C35        -6.9420   -0.8310   -1.7680 c3        1 MOL     -0.015676
    111 C36        -7.0480    0.6090   -1.1320 c         1 MOL      0.677956
    112 O17        -7.9530    1.3590   -1.4380 o         1 MOL     -0.603826
    113 C37        -7.8670   -1.7940   -0.9870 c3        1 MOL     -0.349489
    114 C38        -8.1280   -3.2120   -1.5350 c         1 MOL      0.606973
    115 N11        -8.0630   -3.4820   -2.8090 n         1 MOL     -0.659509
    116 O18        -8.4580   -4.1360   -0.7950 o         1 MOL     -0.593953
    117 H50        -5.0490   -1.6710   -1.1050 hn        1 MOL      0.271714
    118 H51        -7.3600   -0.6940   -2.7680 h1        1 MOL      0.082362
    119 H52        -8.8490   -1.3190   -0.8720 hc        1 MOL      0.160125
    120 H53        -7.5460   -1.9410    0.0450 hc        1 MOL      0.160125
    121 H54        -7.9200   -2.7650   -3.4990 hn        1 MOL      0.335408
    122 H55        -8.4300   -4.3850   -3.0820 hn        1 MOL      0.335408
    123 N12        -6.0420    1.0750   -0.4360 n         1 MOL     -0.532590
    124 C39        -5.9840    2.3470    0.3030 c3        1 MOL      0.403389
    125 C40        -4.5960    2.9620    0.3830 c         1 MOL      0.276457
    126 O19        -3.6000    2.2720    0.3230 o         1 MOL     -0.462066
    127 C41        -6.3330    2.0170    1.7950 c3        1 MOL     -0.222531
    128 C42        -7.6190    1.2190    1.9990 ca        1 MOL     -0.045663
    129 C43        -8.9250    1.7150    1.7720 ca        1 MOL     -0.094713
    130 C44        -7.4250   -0.1940    2.2860 ca        1 MOL     -0.094713
    131 C45       -10.0540    0.8830    1.8200 ca        1 MOL     -0.243405
    132 C46        -8.6410   -0.9740    2.3290 ca        1 MOL     -0.243405
    133 C47        -9.9240   -0.4210    2.1840 ca        1 MOL      0.301445
    134 O20       -10.9820   -1.2450    2.2420 oh        1 MOL     -0.483212
    135 H56        -5.3130    0.4020   -0.2400 hn        1 MOL      0.250982
    136 H57        -6.6260    3.1290   -0.0880 h1        1 MOL      0.003863
    137 H58        -6.4110    2.9500    2.3420 hc        1 MOL      0.112800
    138 H59        -5.5170    1.3890    2.1680 hc        1 MOL      0.112800
    139 H60        -8.9900    2.7670    1.5590 ha        1 MOL      0.113778
    140 H61        -6.4460   -0.6450    2.3980 ha        1 MOL      0.113778
    141 H62       -11.0180    1.3710    1.7810 ha        1 MOL      0.116605
    142 H63        -8.5840   -2.0030    2.6370 ha        1 MOL      0.116605
    143 H64       -11.7750   -0.7110    2.2240 ho        1 MOL      0.359588
    144 N13        -4.5700    4.2790    0.7110 n         1 MOL     -0.602728
    145 C48        -3.3850    4.9940    1.3310 c3        1 MOL      0.250671
    146 C49        -2.2300    5.2840    0.3660 c         1 MOL      0.319547
    147 O21        -1.3460    6.1320    0.6430 o         1 MOL     -0.506722
    148 C50        -2.9570    4.2430    2.5890 c3        1 MOL      0.047410
    149 C51        -2.1870    5.1140    3.6160 c3        1 MOL     -0.192449
    150 C52        -1.9850    4.2030    4.8040 c         1 MOL      0.704457
    151 O22        -0.7930    3.9010    5.0300 o         1 MOL     -0.725298
    152 O23        -2.9710    3.7750    5.4260 o         1 MOL     -0.725298
    153 H65        -5.4590    4.7580    0.7870 hn        1 MOL      0.322780
    154 H66        -3.7470    5.9650    1.6650 h1        1 MOL      0.014101
    155 H67        -2.3440    3.4070    2.2620 hc        1 MOL      0.017446
    156 H68        -3.8880    3.9360    3.0640 hc        1 MOL      0.017446
    157 H69        -2.8670    5.8950    3.9520 hc        1 MOL      0.017019
    158 H70        -1.2140    5.4860    3.2880 hc        1 MOL      0.017019
    159 N14        -2.2200    4.5990   -0.7890 n         1 MOL     -0.393907
    160 C53        -1.0680    4.6840   -1.7370 c3        1 MOL     -0.032992
    161 C54        -1.5130    5.2670   -3.1600 c         1 MOL      0.413956
    162 O24        -0.8170    5.2090   -4.1750 o         1 MOL     -0.492631
    163 C55        -0.5140    3.2740   -1.8920 c3        1 MOL     -0.033629
    164 C56         0.0910    2.7250   -0.5390 c3        1 MOL      0.018968
    165 C57         1.5940    3.1060   -0.4450 c         1 MOL      0.769246
    166 O25         2.4090    2.2080   -0.2510 o         1 MOL     -0.718700
    167 O26         1.9580    4.3370   -0.4670 o         1 MOL     -0.718700
    168 H71        -2.8630    3.8330   -0.8780 hn        1 MOL      0.265494
    169 H72        -0.3300    5.3980   -1.3630 h1        1 MOL      0.164881
    170 H73         0.2470    3.3080   -2.6700 hc        1 MOL      0.012582
    171 H74        -1.2690    2.5840   -2.2610 hc        1 MOL      0.012582
    172 H75         0.0400    1.6380   -0.5910 hc        1 MOL      0.044432
    173 H76        -0.3500    3.0130    0.4240 hc        1 MOL      0.044432
    174 N15        -2.7870    5.7660   -3.2970 n         1 MOL     -0.192352
    175 C58        -3.3100    6.3290   -4.5010 c3        1 MOL     -0.224518
    176 H77        -2.6820    7.1630   -4.8140 h1        1 MOL      0.083582
    177 H78        -3.3220    5.5700   -5.2830 h1        1 MOL      0.083582
    178 H79        -4.3250    6.6850   -4.3250 h1        1 MOL      0.083582
    179 H80        -3.4080    5.8810   -2.5150 hn        1 MOL      0.213215
    180 Ca1         4.6250    1.9750    0.7780 Ca        1 MOL      1.723057
    181 O27         5.9270    0.4160    2.4300 oh        1 MOL     -0.793498
    182 H81         6.7080    0.0330    2.0300 ho        1 MOL      0.387595
    183 H82         6.1360    0.4850    3.3640 ho        1 MOL      0.387595
    184 O28         4.4740    4.5680    0.3150 oh        1 MOL     -0.793498
    185 H83         4.9490    5.1720   -0.2540 ho        1 MOL      0.387595
    186 H84         3.5800    4.5600   -0.0340 ho        1 MOL      0.387595
    187 O29         2.8170    2.4860    2.6330 oh        1 MOL     -0.793498
    188 H85         1.9360    2.1830    2.8340 ho        1 MOL      0.387595
    189 H86         2.9930    3.1630    3.2860 ho        1 MOL      0.387595
    190 O30         5.7150    3.3890    3.1310 oh        1 MOL     -0.793498
    191 H87         6.5450    3.6650    2.7320 ho        1 MOL      0.387595
    192 H88         5.9830    2.8330    3.8570 ho        1 MOL      0.387595
@<TRIPOS>BOND
     1    1    2 1   
     2    1    4 1   
     3    1    5 1   
     4    1    6 1   
     5    2    3 2   
     6    2    7 1   
     7    7    8 1   
     8    7   15 1   
     9    8    9 1   
    10    8   11 1   
    11    8   16 1   
    12    9   10 2   
    13    9   19 1   
    14   11   12 1   
    15   11   17 1   
    16   11   18 1   
    17   12   13 1   
    18   12   14 1   
    19   19   20 1   
    20   19   27 1   
    21   20   21 1   
    22   20   23 1   
    23   20   28 1   
    24   21   22 2   
    25   21   38 1   
    26   23   24 1   
    27   23   25 1   
    28   23   29 1   
    29   24   26 1   
    30   24   30 1   
    31   24   31 1   
    32   25   32 1   
    33   25   33 1   
    34   25   34 1   
    35   26   35 1   
    36   26   36 1   
    37   26   37 1   
    38   38   39 1   
    39   38   46 1   
    40   39   40 1   
    41   39   42 1   
    42   39   47 1   
    43   40   41 2   
    44   40   50 1   
    45   42   43 1   
    46   42   48 1   
    47   42   49 1   
    48   43   44 1   
    49   43   45 1   
    50   50   51 1   
    51   50   54 1   
    52   51   52 1   
    53   51   55 1   
    54   51   56 1   
    55   52   53 2   
    56   52   57 1   
    57   57   58 1   
    58   57   65 1   
    59   58   59 1   
    60   58   61 1   
    61   58   66 1   
    62   59   60 2   
    63   59   69 1   
    64   61   62 1   
    65   61   67 1   
    66   61   68 1   
    67   62   63 1   
    68   62   64 1   
    69   69   70 1   
    70   69   73 1   
    71   70   71 1   
    72   70   74 1   
    73   70   75 1   
    74   71   72 2   
    75   71   76 1   
    76   76   77 1   
    77   76   85 1   
    78   77   78 1   
    79   77   80 1   
    80   77   86 1   
    81   78   79 2   
    82   78   93 1   
    83   80   81 1   
    84   80   87 1   
    85   80   88 1   
    86   81   82 1   
    87   81   89 1   
    88   81   90 1   
    89   82   83 1   
    90   82   84 2   
    91   83   91 1   
    92   83   92 1   
    93   93   94 1   
    94   93  100 1   
    95   94   95 1   
    96   94   97 1   
    97   94  101 1   
    98   95   96 2   
    99   95  109 1   
   100   97   98 1   
   101   97   99 1   
   102   97  102 1   
   103   98  103 1   
   104   98  104 1   
   105   98  105 1   
   106   99  106 1   
   107   99  107 1   
   108   99  108 1   
   109  109  110 1   
   110  109  117 1   
   111  110  111 1   
   112  110  113 1   
   113  110  118 1   
   114  111  112 2   
   115  111  123 1   
   116  113  114 1   
   117  113  119 1   
   118  113  120 1   
   119  114  115 1   
   120  114  116 2   
   121  115  121 1   
   122  115  122 1   
   123  123  124 1   
   124  123  135 1   
   125  124  125 1   
   126  124  127 1   
   127  124  136 1   
   128  125  126 2   
   129  125  144 1   
   130  127  128 1   
   131  127  137 1   
   132  127  138 1   
   133  128  129 ar  
   134  128  130 ar  
   135  129  131 ar  
   136  129  139 1   
   137  130  132 ar  
   138  130  140 1   
   139  131  133 ar  
   140  131  141 1   
   141  132  133 ar  
   142  132  142 1   
   143  133  134 1   
   144  134  143 1   
   145  144  145 1   
   146  144  153 1   
   147  145  146 1   
   148  145  148 1   
   149  145  154 1   
   150  146  147 2   
   151  146  159 1   
   152  148  149 1   
   153  148  155 1   
   154  148  156 1   
   155  149  150 1   
   156  149  157 1   
   157  149  158 1   
   158  150  151 1   
   159  150  152 1   
   160  159  160 1   
   161  159  168 1   
   162  160  161 1   
   163  160  163 1   
   164  160  169 1   
   165  161  162 2   
   166  161  174 1   
   167  163  164 1   
   168  163  170 1   
   169  163  171 1   
   170  164  165 1   
   171  164  172 1   
   172  164  173 1   
   173  165  166 1   
   174  165  167 1   
   175  174  175 1   
   176  174  179 1   
   177  175  176 1   
   178  175  177 1   
   179  175  178 1   
   180  181  182 1   
   181  181  183 1   
   182  184  185 1   
   183  184  186 1   
   184  187  188 1   
   185  187  189 1   
   186  190  191 1   
   187  190  192 1   
@<TRIPOS>SUBSTRUCTURE
     1 MOL         1 TEMP              0 ****  ****    0 ROOT
