@<TRIPOS>MOLECULE
MOL
  194   186     1     0     0
SMALL
resp


@<TRIPOS>ATOM
      1 C1          2.5470    0.7750    2.4310 c3        1 MOL     -0.323723
      2 C2          3.7860    0.7460    1.5360 c         1 MOL      0.811515
      3 O1          3.7190    1.3360    0.4810 o         1 MOL     -0.658131
      4 H1          1.8480    0.0040    2.1080 hc        1 MOL      0.075649
      5 H2          2.8400    0.5900    3.4640 hc        1 MOL      0.075649
      6 H3          2.0690    1.7520    2.3590 hc        1 MOL      0.075649
      7 N1          4.7750    0.0200    1.9840 n         1 MOL     -0.604414
      8 C3          6.0210   -0.2340    1.2660 c3        1 MOL     -0.107819
      9 C4          6.6450   -1.6590    1.2900 c         1 MOL      0.502425
     10 O2          7.7170   -1.8470    0.7250 o         1 MOL     -0.459176
     11 C5          7.0600    0.7550    1.7520 c3        1 MOL     -0.203482
     12 C6          7.4910    0.6900    3.2520 c         1 MOL      0.679663
     13 O3          8.5420    1.2130    3.6550 o         1 MOL     -0.681278
     14 O4          6.9230   -0.1250    4.0690 o         1 MOL     -0.681278
     15 H4          4.6490   -0.4870    2.8420 hn        1 MOL      0.277724
     16 H5          5.8230    0.0750    0.2400 h1        1 MOL      0.189152
     17 H6          6.6250    1.7380    1.6240 hc        1 MOL      0.100902
     18 H7          7.8720    0.6030    1.0430 hc        1 MOL      0.100902
     19 N2          5.9350   -2.6240    1.9140 n         1 MOL     -0.204349
     20 C7          6.1190   -4.0720    1.9100 c3        1 MOL      0.022656
     21 C8          6.3530   -4.5570    0.5090 c         1 MOL      0.561296
     22 O5          7.4410   -4.9430    0.0660 o         1 MOL     -0.502213
     23 C9          7.2750   -4.4150    2.8800 c3        1 MOL     -0.296750
     24 C10         7.0210   -4.0330    4.3750 c3        1 MOL      0.416651
     25 C11         8.3590   -4.1600    5.0730 c3        1 MOL     -0.447460
     26 C12         9.2940   -2.9070    4.8440 c3        1 MOL      0.095668
     27 N3          8.7940   -1.6850    5.4700 n4        1 MOL     -0.443487
     28 H8          4.9660   -2.4190    2.1330 hn        1 MOL      0.192127
     29 H9          5.2510   -4.6230    2.2950 h1        1 MOL      0.049840
     30 H10         8.1600   -3.8970    2.4940 hc        1 MOL      0.099321
     31 H11         7.4510   -5.4800    2.7260 hc        1 MOL      0.099321
     32 H12         6.3380   -4.7110    4.8780 hc        1 MOL     -0.088882
     33 H13         6.5880   -3.0290    4.4020 hc        1 MOL     -0.088882
     34 H14         8.8750   -5.0490    4.7050 hc        1 MOL      0.125041
     35 H15         8.1920   -4.3360    6.1390 hc        1 MOL      0.125041
     36 H16         9.3190   -2.7480    3.7580 hx        1 MOL      0.087989
     37 H17        10.3170   -3.1650    5.1220 hx        1 MOL      0.087989
     38 H18         8.0680   -1.2740    4.9070 hn        1 MOL      0.330060
     39 H19         8.4040   -1.9640    6.3550 hn        1 MOL      0.330060
     40 H20         9.5390   -1.0280    5.6000 hn        1 MOL      0.330060
     41 N4          5.2410   -4.5880   -0.2420 n         1 MOL     -0.453096
     42 C13         5.3260   -4.7510   -1.7110 c3        1 MOL      0.087747
     43 C14         5.6910   -3.3420   -2.4320 c         1 MOL      0.361486
     44 O6          6.2810   -3.3260   -3.5300 o         1 MOL     -0.488733
     45 C15         4.1710   -5.4950   -2.3910 c3        1 MOL     -0.177152
     46 C16         3.6250   -6.5580   -1.4900 c         1 MOL      0.695575
     47 O7          2.4690   -6.4000   -1.0050 o         1 MOL     -0.699349
     48 O8          4.2790   -7.6330   -1.2420 o         1 MOL     -0.699349
     49 H21         4.3340   -4.3520    0.1410 hn        1 MOL      0.239347
     50 H22         6.1600   -5.4220   -1.9340 h1        1 MOL      0.117115
     51 H23         4.5020   -5.9540   -3.3240 hc        1 MOL      0.019907
     52 H24         3.3270   -4.8370   -2.5820 hc        1 MOL      0.019907
     53 N5          5.5140   -2.2190   -1.6890 n         1 MOL     -0.148895
     54 C17         5.6730   -0.8700   -2.2450 c3        1 MOL     -0.225149
     55 C18         7.1150   -0.3520   -2.2330 c         1 MOL      0.646502
     56 O9          8.0050   -1.1640   -2.2140 o         1 MOL     -0.492602
     57 H25         4.9840   -2.2990   -0.8350 hn        1 MOL      0.145895
     58 H26         5.0270   -0.1910   -1.6920 h1        1 MOL      0.090679
     59 H27         5.3540   -0.9050   -3.2850 h1        1 MOL      0.090679
     60 N6          7.4650    0.9120   -2.4330 n         1 MOL     -0.624581
     61 C19         6.6720    2.1350   -2.7140 c3        1 MOL      0.421186
     62 C20         6.7950    3.1810   -1.6290 c         1 MOL      0.235287
     63 O10         7.9210    3.5590   -1.1970 o         1 MOL     -0.480789
     64 C21         7.0750    2.6380   -4.0770 c3        1 MOL     -0.248733
     65 C22         6.2990    3.8030   -4.5230 c         1 MOL      0.622869
     66 N7          5.3810    3.4370   -5.3890 n         1 MOL     -0.767313
     67 O11         6.6330    4.9610   -4.2180 o         1 MOL     -0.527405
     68 H28         8.4480    1.0940   -2.5880 hn        1 MOL      0.313100
     69 H29         5.6280    1.8350   -2.7970 h1        1 MOL     -0.060521
     70 H30         6.9670    1.8400   -4.8100 hc        1 MOL      0.087076
     71 H31         8.1450    2.8420   -4.1460 hc        1 MOL      0.087076
     72 H32         5.3430    2.4770   -5.6960 hn        1 MOL      0.355242
     73 H33         4.7540    4.1340   -5.7790 hn        1 MOL      0.355242
     74 N8          5.6440    3.6930   -1.1410 n         1 MOL     -0.254088
     75 C23         4.2670    3.5300   -1.6450 c3        1 MOL     -0.076335
     76 C24         3.2460    4.5810   -1.0460 c         1 MOL      0.665120
     77 O12         3.6910    5.5470   -0.4850 o         1 MOL     -0.519529
     78 H34         5.8210    4.3310   -0.3820 hn        1 MOL      0.266830
     79 H35         3.9680    2.4930   -1.4630 h1        1 MOL      0.055947
     80 H36         4.1510    3.6750   -2.7260 h1        1 MOL      0.055947
     81 N9          1.9650    4.4050   -1.3550 n         1 MOL     -0.592945
     82 C25         0.8710    5.2460   -0.8100 c3        1 MOL      0.197992
     83 C26        -0.3800    4.4750   -0.3290 c         1 MOL      0.605225
     84 O13        -0.5570    3.3090   -0.6220 o         1 MOL     -0.544011
     85 C27         0.3670    6.2290   -1.8710 c3        1 MOL     -0.019406
     86 C28        -0.5410    7.3500   -1.3270 ca        1 MOL     -0.009999
     87 C29        -1.8590    7.5180   -1.8460 ca        1 MOL     -0.143728
     88 C30         0.0010    8.2380   -0.3950 ca        1 MOL     -0.143728
     89 C31        -2.6600    8.5260   -1.4020 ca        1 MOL     -0.245419
     90 C32        -0.8400    9.2350    0.1400 ca        1 MOL     -0.245419
     91 C33        -2.1450    9.3920   -0.3840 ca        1 MOL      0.299325
     92 O14        -2.9740   10.2290    0.2230 oh        1 MOL     -0.444549
     93 H37         1.7250    3.4580   -1.5940 hn        1 MOL      0.286932
     94 H38         1.2240    5.8690    0.0160 h1        1 MOL      0.000035
     95 H39        -0.0670    5.6200   -2.6610 hc        1 MOL      0.031730
     96 H40         1.2540    6.6420   -2.3550 hc        1 MOL      0.031730
     97 H41        -2.1460    6.8790   -2.6700 ha        1 MOL      0.143579
     98 H42         0.9940    8.0810    0.0070 ha        1 MOL      0.143579
     99 H43        -3.6480    8.6450   -1.8260 ha        1 MOL      0.151527
    100 H44        -0.5080    9.9180    0.8990 ha        1 MOL      0.151527
    101 H45        -2.4820   10.5210    1.0000 ho        1 MOL      0.336700
    102 N10        -1.2430    5.0600    0.5070 n         1 MOL     -0.500331
    103 C34        -2.4640    4.4750    1.0820 c3        1 MOL     -0.098302
    104 C35        -3.7220    4.3630    0.1500 c         1 MOL      0.580814
    105 O15        -3.7670    5.1910   -0.7860 o         1 MOL     -0.493356
    106 C36        -2.8590    5.2280    2.3080 c3        1 MOL      0.314130
    107 C37        -2.1470    4.6370    3.5230 c3        1 MOL     -0.042372
    108 C38        -2.8590    6.7960    2.1530 c3        1 MOL     -0.009640
    109 C39        -2.5940    5.2120    4.8550 c3        1 MOL     -0.203603
    110 H46        -1.1150    6.0340    0.7240 hn        1 MOL      0.253396
    111 H47        -2.2180    3.4550    1.3840 h1        1 MOL      0.074095
    112 H48        -3.8910    4.9560    2.4970 hc        1 MOL     -0.057665
    113 H49        -1.0840    4.8390    3.3820 hc        1 MOL      0.020666
    114 H50        -2.2430    3.5540    3.4780 hc        1 MOL      0.020666
    115 H51        -3.4810    7.0880    3.0050 hc        1 MOL     -0.008256
    116 H52        -1.8590    7.2390    2.2090 hc        1 MOL     -0.008256
    117 H53        -3.3330    7.1520    1.2400 hc        1 MOL     -0.008256
    118 H54        -3.6830    5.2570    4.8750 hc        1 MOL      0.050344
    119 H55        -2.2470    4.5980    5.6840 hc        1 MOL      0.050344
    120 H56        -2.2320    6.2260    5.0300 hc        1 MOL      0.050344
    121 N11        -4.6220    3.4020    0.3520 n         1 MOL     -0.376683
    122 C40        -5.7870    3.2570   -0.5410 c3        1 MOL     -0.124503
    123 C41        -6.2390    1.8180   -0.6970 c         1 MOL      0.668913
    124 O16        -5.9110    0.9530    0.1200 o         1 MOL     -0.483429
    125 C42        -7.0600    4.0740   -0.0840 c3        1 MOL      0.211608
    126 O17        -7.3700    3.7160    1.1970 oh        1 MOL     -0.575363
    127 H57        -4.5440    2.6810    1.0490 hn        1 MOL      0.249411
    128 H58        -5.4810    3.5860   -1.5360 h1        1 MOL      0.088371
    129 H59        -7.8640    3.7210   -0.7250 h1        1 MOL      0.000883
    130 H60        -6.9290    5.1530   -0.2050 h1        1 MOL      0.000883
    131 H61        -8.1060    4.2360    1.5390 ho        1 MOL      0.417551
    132 N12        -6.9470    1.5150   -1.7780 n         1 MOL     -0.608771
    133 C43        -7.2950    0.1440   -2.1700 c3        1 MOL      0.196060
    134 C44        -7.9170   -0.7910   -1.1410 c         1 MOL      0.323341
    135 O18        -7.8330   -2.0530   -1.2130 o         1 MOL     -0.397494
    136 C45        -5.9830   -0.4230   -2.8070 c3        1 MOL     -0.212229
    137 H62        -7.1670    2.2390   -2.4470 hn        1 MOL      0.333188
    138 H63        -7.9550    0.1520   -3.0370 h1        1 MOL      0.063401
    139 H64        -5.3650   -0.7700   -1.9780 hc        1 MOL      0.055211
    140 H65        -6.2650   -1.3540   -3.3120 hc        1 MOL      0.055211
    141 H66        -5.5180    0.3520   -3.4210 hc        1 MOL      0.055211
    142 N13        -8.6700   -0.2630   -0.1640 n         1 MOL     -0.422966
    143 C46        -9.3900   -1.1090    0.8010 c3        1 MOL      0.019838
    144 C47        -8.4510   -2.0160    1.6600 c         1 MOL      0.392268
    145 O19        -8.7750   -3.0920    2.1930 o         1 MOL     -0.471080
    146 C48       -10.5780   -1.8150    0.0810 c3        1 MOL     -0.056051
    147 H67        -8.8290    0.7330   -0.1920 hn        1 MOL      0.322517
    148 H68        -9.8070   -0.4340    1.5590 h1        1 MOL      0.079198
    149 H69       -11.1480   -2.4600    0.7470 hc        1 MOL      0.029888
    150 H70       -11.2410   -1.0290   -0.2730 hc        1 MOL      0.029888
    151 H71       -10.3660   -2.4440   -0.7770 hc        1 MOL      0.029888
    152 N14        -7.2260   -1.5420    1.8620 n         1 MOL     -0.200832
    153 C49        -6.1680   -2.3100    2.5830 c3        1 MOL     -0.042362
    154 C50        -6.4010   -2.3240    4.1290 c         1 MOL      0.369086
    155 O20        -6.1130   -3.3660    4.6890 o         1 MOL     -0.490899
    156 C51        -4.7790   -1.7410    2.2920 c3        1 MOL      0.064246
    157 C52        -3.8180   -2.8360    1.8170 c3        1 MOL     -0.004738
    158 C53        -4.2250   -3.4420    0.4220 c         1 MOL      0.800233
    159 O21        -5.2210   -4.1380    0.1620 o         1 MOL     -0.794408
    160 O22        -3.5350   -3.1460   -0.5110 o         1 MOL     -0.794408
    161 H72        -6.9880   -0.7580    1.2680 hn        1 MOL      0.145863
    162 H73        -6.2630   -3.3810    2.3740 h1        1 MOL      0.118499
    163 H74        -4.2770   -1.2360    3.1200 hc        1 MOL      0.017227
    164 H75        -4.8460   -0.9660    1.5230 hc        1 MOL      0.017227
    165 H76        -3.7660   -3.6510    2.5520 hc        1 MOL     -0.017597
    166 H77        -2.8140   -2.4400    1.7120 hc        1 MOL     -0.017597
    167 N15        -6.8920   -1.3080    4.7980 n         1 MOL     -0.159059
    168 C54        -7.0920   -1.2700    6.1890 c3        1 MOL     -0.189635
    169 H78        -8.0030   -1.8130    6.4410 h1        1 MOL      0.091122
    170 H79        -6.2430   -1.7330    6.6920 h1        1 MOL      0.091122
    171 H80        -7.1860   -0.2330    6.5150 h1        1 MOL      0.091122
    172 H81        -7.1590   -0.4950    4.2610 hn        1 MOL      0.160818
    173 Ca1        -4.4690   -5.1370   -2.0780 Ca        1 MOL      1.719371
    174 O23        -4.0160   -3.5550   -4.0360 oh        1 MOL     -0.788391
    175 H82        -3.3840   -3.8470   -4.6930 ho        1 MOL      0.395112
    176 H83        -4.3200   -2.7040   -4.3590 ho        1 MOL      0.395112
    177 O24        -3.4050   -7.3360   -3.3840 oh        1 MOL     -0.788391
    178 H84        -2.7110   -7.8940   -3.0380 ho        1 MOL      0.395112
    179 H85        -3.7420   -7.8130   -4.1510 ho        1 MOL      0.395112
    180 O25        -7.0630   -4.2430   -2.5620 oh        1 MOL     -0.788391
    181 H86        -7.4310   -4.0170   -3.4190 ho        1 MOL      0.395112
    182 H87        -7.1910   -3.4510   -2.0280 ho        1 MOL      0.395112
    183 O26        -5.8960   -6.0260   -4.1580 oh        1 MOL     -0.788391
    184 H88        -6.7800   -6.2770   -3.8920 ho        1 MOL      0.395112
    185 H89        -5.9870   -5.7760   -5.0800 ho        1 MOL      0.395112
    186 O27        -3.3930   -6.8290   -0.2960 oh        1 MOL     -0.788391
    187 H90        -2.9780   -7.6860   -0.1930 ho        1 MOL      0.395112
    188 H91        -3.1020   -6.3310    0.4670 ho        1 MOL      0.395112
    189 O28        -6.2480   -7.2650   -1.3290 oh        1 MOL     -0.788391
    190 H92        -7.1830   -7.4730   -1.2510 ho        1 MOL      0.395112
    191 H93        -5.8300   -8.1160   -1.4720 ho        1 MOL      0.395112
    192 O29        -1.7390   -4.6820   -2.3800 oh        1 MOL     -0.788391
    193 H94        -1.0560   -4.5520   -3.0430 ho        1 MOL      0.395112
    194 H95        -1.5710   -4.0090   -1.7290 ho        1 MOL      0.395112
@<TRIPOS>BOND
     1    1    2 1   
     2    1    4 1   
     3    1    5 1   
     4    1    6 1   
     5    2    3 2   
     6    2    7 1   
     7    7    8 1   
     8    7   15 1   
     9    8    9 1   
    10    8   11 1   
    11    8   16 1   
    12    9   10 2   
    13    9   19 1   
    14   11   12 1   
    15   11   17 1   
    16   11   18 1   
    17   12   13 1   
    18   12   14 1   
    19   19   20 1   
    20   19   28 1   
    21   20   21 1   
    22   20   23 1   
    23   20   29 1   
    24   21   22 2   
    25   21   41 1   
    26   23   24 1   
    27   23   30 1   
    28   23   31 1   
    29   24   25 1   
    30   24   32 1   
    31   24   33 1   
    32   25   26 1   
    33   25   34 1   
    34   25   35 1   
    35   26   27 1   
    36   26   36 1   
    37   26   37 1   
    38   27   38 1   
    39   27   39 1   
    40   27   40 1   
    41   41   42 1   
    42   41   49 1   
    43   42   43 1   
    44   42   45 1   
    45   42   50 1   
    46   43   44 2   
    47   43   53 1   
    48   45   46 1   
    49   45   51 1   
    50   45   52 1   
    51   46   47 1   
    52   46   48 1   
    53   53   54 1   
    54   53   57 1   
    55   54   55 1   
    56   54   58 1   
    57   54   59 1   
    58   55   56 2   
    59   55   60 1   
    60   60   61 1   
    61   60   68 1   
    62   61   62 1   
    63   61   64 1   
    64   61   69 1   
    65   62   63 2   
    66   62   74 1   
    67   64   65 1   
    68   64   70 1   
    69   64   71 1   
    70   65   66 1   
    71   65   67 2   
    72   66   72 1   
    73   66   73 1   
    74   74   75 1   
    75   74   78 1   
    76   75   76 1   
    77   75   79 1   
    78   75   80 1   
    79   76   77 2   
    80   76   81 1   
    81   81   82 1   
    82   81   93 1   
    83   82   83 1   
    84   82   85 1   
    85   82   94 1   
    86   83   84 2   
    87   83  102 1   
    88   85   86 1   
    89   85   95 1   
    90   85   96 1   
    91   86   87 ar  
    92   86   88 ar  
    93   87   89 ar  
    94   87   97 1   
    95   88   90 ar  
    96   88   98 1   
    97   89   91 ar  
    98   89   99 1   
    99   90   91 ar  
   100   90  100 1   
   101   91   92 1   
   102   92  101 1   
   103  102  103 1   
   104  102  110 1   
   105  103  104 1   
   106  103  106 1   
   107  103  111 1   
   108  104  105 2   
   109  104  121 1   
   110  106  107 1   
   111  106  108 1   
   112  106  112 1   
   113  107  109 1   
   114  107  113 1   
   115  107  114 1   
   116  108  115 1   
   117  108  116 1   
   118  108  117 1   
   119  109  118 1   
   120  109  119 1   
   121  109  120 1   
   122  121  122 1   
   123  121  127 1   
   124  122  123 1   
   125  122  125 1   
   126  122  128 1   
   127  123  124 2   
   128  123  132 1   
   129  125  126 1   
   130  125  129 1   
   131  125  130 1   
   132  126  131 1   
   133  132  133 1   
   134  132  137 1   
   135  133  134 1   
   136  133  136 1   
   137  133  138 1   
   138  134  135 2   
   139  134  142 1   
   140  136  139 1   
   141  136  140 1   
   142  136  141 1   
   143  142  143 1   
   144  142  147 1   
   145  143  144 1   
   146  143  146 1   
   147  143  148 1   
   148  144  145 2   
   149  144  152 1   
   150  146  149 1   
   151  146  150 1   
   152  146  151 1   
   153  152  153 1   
   154  152  161 1   
   155  153  154 1   
   156  153  156 1   
   157  153  162 1   
   158  154  155 2   
   159  154  167 1   
   160  156  157 1   
   161  156  163 1   
   162  156  164 1   
   163  157  158 1   
   164  157  165 1   
   165  157  166 1   
   166  158  159 1   
   167  158  160 1   
   168  167  168 1   
   169  167  172 1   
   170  168  169 1   
   171  168  170 1   
   172  168  171 1   
   173  174  175 1   
   174  174  176 1   
   175  177  178 1   
   176  177  179 1   
   177  180  181 1   
   178  180  182 1   
   179  183  184 1   
   180  183  185 1   
   181  186  187 1   
   182  186  188 1   
   183  189  190 1   
   184  189  191 1   
   185  192  193 1   
   186  192  194 1   
@<TRIPOS>SUBSTRUCTURE
     1 MOL         1 TEMP              0 ****  ****    0 ROOT
