@<TRIPOS>MOLECULE
MOL
  189   185     1     0     0
SMALL
resp


@<TRIPOS>ATOM
      1 C1         -4.5560    3.7300    3.9500 c3        1 MOL     -0.254848
      2 C2         -5.3060    3.1810    2.5960 c         1 MOL      0.649458
      3 O1         -4.5830    3.1410    1.5920 o         1 MOL     -0.562922
      4 H1         -5.2300    4.3900    4.4960 hc        1 MOL      0.060779
      5 H2         -4.2830    2.8850    4.5830 hc        1 MOL      0.060779
      6 H3         -3.6580    4.2810    3.6700 hc        1 MOL      0.060779
      7 N1         -6.5680    2.7270    2.7310 n         1 MOL     -0.658414
      8 C3         -7.1650    1.6770    1.9110 c3        1 MOL      0.143850
      9 C4         -6.2400    0.5010    1.6620 c         1 MOL      0.184820
     10 O2         -5.4330    0.5900    0.7330 o         1 MOL     -0.465280
     11 C5         -7.9270    2.2470    0.6610 c3        1 MOL     -0.156384
     12 C6         -7.4960    3.6110    0.0960 c         1 MOL      0.799550
     13 O3         -6.5380    3.5680   -0.6790 o         1 MOL     -0.733823
     14 O4         -8.2760    4.5580    0.1540 o         1 MOL     -0.733823
     15 H4         -6.9940    2.9890    3.6080 hn        1 MOL      0.347971
     16 H5         -7.8920    1.2070    2.5710 h1        1 MOL      0.056709
     17 H6         -8.9900    2.2590    0.9000 hc        1 MOL      0.042816
     18 H7         -7.7480    1.5490   -0.1530 hc        1 MOL      0.042816
     19 N2         -6.3480   -0.5740    2.5250 n         1 MOL     -0.282885
     20 C7         -5.5640   -1.8880    2.5090 c3        1 MOL      0.109256
     21 C8         -6.1870   -2.8200    1.4480 c         1 MOL      0.288677
     22 O5         -6.7960   -3.8600    1.7470 o         1 MOL     -0.518574
     23 C9         -4.0600   -1.5980    2.4060 c3        1 MOL      0.135778
     24 C10        -3.2510   -2.8760    2.6040 c3        1 MOL      0.155624
     25 C11        -3.4790   -0.4710    3.2150 c3        1 MOL     -0.114948
     26 C12        -3.1430   -3.3920    4.0280 c3        1 MOL     -0.482095
     27 H8         -7.0030   -0.4020    3.2810 hn        1 MOL      0.247111
     28 H9         -5.6550   -2.2860    3.5230 h1        1 MOL      0.016583
     29 H10        -3.7990   -1.3340    1.3790 hc        1 MOL     -0.111512
     30 H11        -2.2440   -2.6460    2.2450 hc        1 MOL      0.023013
     31 H12        -3.6520   -3.6970    2.0090 hc        1 MOL      0.023013
     32 H13        -3.6150    0.5000    2.7350 hc        1 MOL      0.023310
     33 H14        -3.8510   -0.4150    4.2330 hc        1 MOL      0.023310
     34 H15        -2.4030   -0.6280    3.3240 hc        1 MOL      0.023310
     35 H16        -2.5170   -2.7830    4.6820 hc        1 MOL      0.106010
     36 H17        -4.0340   -3.9110    4.3760 hc        1 MOL      0.106010
     37 H18        -2.5340   -4.2940    3.9170 hc        1 MOL      0.106010
     38 N3         -6.0570   -2.4690    0.1500 n         1 MOL     -0.051287
     39 C13        -6.7790   -3.2610   -0.9110 c3        1 MOL     -0.046601
     40 C14        -6.1100   -4.5660   -1.4030 c         1 MOL      0.555263
     41 O6         -6.7690   -5.5170   -1.7680 o         1 MOL     -0.567289
     42 C15        -7.3210   -2.3670   -2.0790 c3        1 MOL      0.046988
     43 C16        -8.2170   -1.2860   -1.5100 c         1 MOL      0.683746
     44 O7         -9.1280   -1.6500   -0.7290 o         1 MOL     -0.685648
     45 O8         -8.1450   -0.1120   -1.9660 o         1 MOL     -0.685648
     46 H19        -5.6580   -1.5590   -0.0440 hn        1 MOL      0.188524
     47 H20        -7.7530   -3.5990   -0.5520 h1        1 MOL      0.064510
     48 H21        -7.9080   -3.0230   -2.7280 hc        1 MOL     -0.028788
     49 H22        -6.4570   -1.9950   -2.6210 hc        1 MOL     -0.028788
     50 N4         -4.7640   -4.6410   -1.3940 n         1 MOL     -0.534815
     51 C17        -3.7100   -3.6220   -1.2460 c3        1 MOL      0.163029
     52 C18        -2.5860   -3.9760   -2.2710 c         1 MOL      0.606850
     53 O9         -2.3360   -5.1490   -2.5150 o         1 MOL     -0.590689
     54 H23        -4.3410   -5.5250   -1.6630 hn        1 MOL      0.281861
     55 H24        -3.3800   -3.6200   -0.2070 h1        1 MOL      0.024881
     56 H25        -4.0990   -2.6530   -1.5510 h1        1 MOL      0.024881
     57 N5         -1.9190   -3.0740   -2.9810 n         1 MOL     -0.597616
     58 C19        -2.2280   -1.5490   -3.0760 c3        1 MOL      0.296016
     59 C20        -2.4390   -0.8100   -1.7280 c         1 MOL      0.018037
     60 O10        -3.4720   -0.2200   -1.4840 o         1 MOL     -0.544161
     61 C21        -3.3680   -1.3520   -4.1270 c3        1 MOL     -0.260564
     62 C22        -3.5700    0.1680   -4.4540 c         1 MOL      0.765984
     63 O11        -2.5320    0.9380   -4.3850 o         1 MOL     -0.683248
     64 O12        -4.6140    0.5710   -5.0020 o         1 MOL     -0.683248
     65 H26        -1.2440   -3.4160   -3.6490 hn        1 MOL      0.315814
     66 H27        -1.3620   -1.0810   -3.5460 h1        1 MOL      0.039835
     67 H28        -4.2930   -1.7050   -3.6630 hc        1 MOL      0.066384
     68 H29        -3.1390   -1.8950   -5.0320 hc        1 MOL      0.066384
     69 N6         -1.3830   -0.7660   -0.8860 n         1 MOL     -0.071133
     70 C23        -0.0740   -1.4430   -0.9150 c3        1 MOL     -0.180945
     71 C24         0.0110   -2.8210   -0.3140 c         1 MOL      0.469363
     72 O13        -0.9130   -3.3210    0.2590 o         1 MOL     -0.529248
     73 H30        -1.7160   -0.3730   -0.0150 hn        1 MOL      0.334261
     74 H31         0.6420   -0.8370   -0.3420 h1        1 MOL      0.089267
     75 H32         0.2270   -1.4540   -1.9630 h1        1 MOL      0.089267
     76 N7          1.1070   -3.4290   -0.6340 n         1 MOL     -0.240797
     77 C25         1.5190   -4.7160   -0.1030 c3        1 MOL     -0.064073
     78 C26         2.2050   -4.5550    1.2750 c         1 MOL      0.440852
     79 O14         2.2740   -5.4880    2.0210 o         1 MOL     -0.537879
     80 C27         2.3520   -5.5120   -1.1460 c3        1 MOL      0.029698
     81 C28         3.2650   -4.7340   -2.0520 c3        1 MOL     -0.257480
     82 C29         4.4890   -4.1450   -1.3320 c         1 MOL      0.608731
     83 N8          5.5450   -4.8980   -1.1620 n         1 MOL     -0.710364
     84 O15         4.4660   -3.0150   -0.7980 o         1 MOL     -0.552686
     85 H33         1.7640   -2.9720   -1.2580 hn        1 MOL      0.197636
     86 H34         0.6560   -5.3300    0.1380 h1        1 MOL      0.127224
     87 H35         1.6480   -5.9960   -1.8150 hc        1 MOL      0.037279
     88 H36         2.9280   -6.3070   -0.6750 hc        1 MOL      0.037279
     89 H37         2.7530   -3.8980   -2.5300 hc        1 MOL      0.090008
     90 H38         3.6820   -5.4940   -2.7230 hc        1 MOL      0.090008
     91 H39         5.6900   -5.8440   -1.4900 hn        1 MOL      0.351936
     92 H40         6.2550   -4.6340   -0.5000 hn        1 MOL      0.351936
     93 N9          2.6930   -3.3750    1.5880 n         1 MOL     -0.165668
     94 C30         3.0220   -2.8860    2.9680 c3        1 MOL     -0.334168
     95 C31         4.4500   -2.2800    3.0410 c         1 MOL      0.565930
     96 O16         4.9850   -2.2010    4.1130 o         1 MOL     -0.547711
     97 C32         1.9590   -1.9370    3.5790 c3        1 MOL      0.320129
     98 C33         0.6390   -2.6300    3.6720 c3        1 MOL     -0.240793
     99 C34         1.8830   -0.5190    3.0540 c3        1 MOL     -0.240793
    100 H41         2.7610   -2.6890    0.8550 hn        1 MOL      0.219428
    101 H42         3.0370   -3.7830    3.5860 h1        1 MOL      0.162465
    102 H43         2.2660   -1.8170    4.6210 hc        1 MOL     -0.005875
    103 H44         0.0950   -2.1740    4.4890 hc        1 MOL      0.053730
    104 H45         0.0690   -2.4530    2.7520 hc        1 MOL      0.053730
    105 H46         0.7390   -3.7080    3.8050 hc        1 MOL      0.053730
    106 H47         1.4910   -0.3850    2.0460 hc        1 MOL      0.053730
    107 H48         1.2410   -0.0270    3.7750 hc        1 MOL      0.053730
    108 H49         2.8250    0.0230    3.0270 hc        1 MOL      0.053730
    109 N10         5.1330   -1.9620    1.9040 n         1 MOL     -0.376247
    110 C35         6.5470   -1.4180    1.9280 c3        1 MOL      0.076218
    111 C36         6.6320    0.0780    1.5450 c         1 MOL      0.517759
    112 O17         7.5810    0.7690    1.9560 o         1 MOL     -0.548539
    113 C37         7.4080   -2.2140    0.8970 c3        1 MOL     -0.402862
    114 C38         7.8530   -3.6240    1.3680 c         1 MOL      0.746490
    115 N11         8.1910   -3.9150    2.5610 n         1 MOL     -0.747617
    116 O18         8.0190   -4.4740    0.5470 o         1 MOL     -0.605194
    117 H50         4.7580   -2.1620    0.9890 hn        1 MOL      0.193434
    118 H51         6.9120   -1.5610    2.9480 h1        1 MOL      0.060299
    119 H52         8.3130   -1.6090    0.8010 hc        1 MOL      0.140638
    120 H53         6.8360   -2.2370   -0.0370 hc        1 MOL      0.140638
    121 H54         7.9850   -3.3500    3.3780 hn        1 MOL      0.354680
    122 H55         8.5760   -4.8260    2.7680 hn        1 MOL      0.354680
    123 N12         5.6990    0.5440    0.7180 n         1 MOL     -0.386307
    124 C39         5.8860    1.6860   -0.1530 c3        1 MOL      0.018194
    125 C40         4.6290    2.6450   -0.1470 c         1 MOL      0.490475
    126 O19         3.5540    2.1740   -0.4350 o         1 MOL     -0.462510
    127 C41         6.1280    1.3030   -1.6540 c3        1 MOL     -0.003736
    128 C42         7.4140    0.5310   -1.9080 ca        1 MOL     -0.071731
    129 C43         8.6750    1.0800   -1.5260 ca        1 MOL     -0.066643
    130 C44         7.2920   -0.7750   -2.3490 ca        1 MOL     -0.066643
    131 C45         9.8420    0.3090   -1.6640 ca        1 MOL     -0.308584
    132 C46         8.4830   -1.5460   -2.4580 ca        1 MOL     -0.308584
    133 C47         9.7270   -0.9800   -2.1560 ca        1 MOL      0.406597
    134 O20        10.9100   -1.6500   -2.3960 oh        1 MOL     -0.542040
    135 H56         4.8880   -0.0180    0.4820 hn        1 MOL      0.257952
    136 H57         6.7590    2.2440    0.1730 h1        1 MOL      0.058435
    137 H58         6.1530    2.2130   -2.2740 hc        1 MOL      0.074692
    138 H59         5.2670    0.7340   -1.9840 hc        1 MOL      0.074692
    139 H60         8.8160    2.0820   -1.1480 ha        1 MOL      0.128854
    140 H61         6.3420   -1.2230   -2.5670 ha        1 MOL      0.128854
    141 H62        10.8540    0.6210   -1.4780 ha        1 MOL      0.140339
    142 H63         8.4060   -2.5290   -2.9090 ha        1 MOL      0.140339
    143 H64        11.6290   -1.1830   -1.9680 ho        1 MOL      0.366089
    144 N13         4.8100    3.9620    0.0180 n         1 MOL     -0.551292
    145 C48         4.0180    5.0970   -0.4000 c3        1 MOL      0.076064
    146 C49         2.6920    5.2360    0.3710 c         1 MOL      0.540792
    147 O21         2.1240    6.2910    0.3940 o         1 MOL     -0.564549
    148 C50         3.8080    5.1910   -1.9100 c3        1 MOL     -0.043920
    149 C51         5.1640    5.2530   -2.6540 c3        1 MOL     -0.087629
    150 C52         5.0890    5.6310   -4.1510 c         1 MOL      0.700934
    151 O22         4.1810    5.0120   -4.7850 o         1 MOL     -0.734652
    152 O23         5.8860    6.4480   -4.5880 o         1 MOL     -0.734652
    153 H65         5.7130    4.2030    0.4010 hn        1 MOL      0.313046
    154 H66         4.4920    6.0000   -0.0260 h1        1 MOL      0.048987
    155 H67         3.3180    6.1080   -2.2520 hc        1 MOL      0.067550
    156 H68         3.1490    4.4250   -2.3030 hc        1 MOL      0.067550
    157 H69         5.6360    4.2870   -2.4970 hc        1 MOL     -0.034077
    158 H70         5.8430    5.9740   -2.1940 hc        1 MOL     -0.034077
    159 N14         2.2290    4.1510    1.0300 n         1 MOL     -0.278620
    160 C53         1.0520    4.0610    1.9900 c3        1 MOL     -0.261707
    161 C54         1.2670    4.8330    3.2520 c         1 MOL      0.484534
    162 O24         0.3390    5.0550    4.0630 o         1 MOL     -0.541523
    163 C55         0.6070    2.6280    2.2090 c3        1 MOL      0.039654
    164 C56         0.2140    2.0240    0.8600 c3        1 MOL      0.228768
    165 C57        -1.0200    2.6940    0.1880 c         1 MOL      0.545993
    166 O25        -0.8450    3.7820   -0.4050 o         1 MOL     -0.638318
    167 O26        -2.0910    2.0320    0.1190 o         1 MOL     -0.638318
    168 H71         2.7500    3.3110    0.8400 hn        1 MOL      0.177644
    169 H72         0.1950    4.5720    1.5330 h1        1 MOL      0.211512
    170 H73        -0.0740    2.6500    3.0610 hc        1 MOL      0.007268
    171 H74         1.4890    2.0950    2.5520 hc        1 MOL      0.007268
    172 H75        -0.1280    1.0050    1.0060 hc        1 MOL     -0.096095
    173 H76         1.0140    2.0580    0.1150 hc        1 MOL     -0.096095
    174 N15         2.4940    5.2830    3.5360 n         1 MOL     -0.167728
    175 C58         2.8760    6.0020    4.7540 c3        1 MOL     -0.227100
    176 H77         2.1040    6.7300    5.0030 h1        1 MOL      0.091050
    177 H78         2.9850    5.2940    5.5760 h1        1 MOL      0.091050
    178 H79         3.8220    6.5190    4.5910 h1        1 MOL      0.091050
    179 H80         3.2100    5.1380    2.8370 hn        1 MOL      0.168316
    180 Ca1        -4.3500    2.2140   -0.9230 Ca        1 MOL      1.725979
    181 O27        -6.1600    1.4580   -2.6850 oh        1 MOL     -0.855128
    182 H81        -5.8090    1.2100   -3.5430 ho        1 MOL      0.399954
    183 H82        -6.8170    0.7870   -2.5030 ho        1 MOL      0.399954
    184 O28        -3.3260    2.9980   -3.2030 oh        1 MOL     -0.855128
    185 H83        -2.5100    3.4870   -3.1140 ho        1 MOL      0.399954
    186 H84        -3.1280    2.2980   -3.8170 ho        1 MOL      0.399954
    187 O29        -3.5610    4.6370   -1.0100 oh        1 MOL     -0.855128
    188 H85        -2.6760    4.6150   -0.6440 ho        1 MOL      0.399954
    189 H86        -3.6000    5.4540   -1.5030 ho        1 MOL      0.399954
@<TRIPOS>BOND
     1    1    2 1   
     2    1    4 1   
     3    1    5 1   
     4    1    6 1   
     5    2    3 2   
     6    2    7 1   
     7    7    8 1   
     8    7   15 1   
     9    8    9 1   
    10    8   11 1   
    11    8   16 1   
    12    9   10 2   
    13    9   19 1   
    14   11   12 1   
    15   11   17 1   
    16   11   18 1   
    17   12   13 1   
    18   12   14 1   
    19   19   20 1   
    20   19   27 1   
    21   20   21 1   
    22   20   23 1   
    23   20   28 1   
    24   21   22 2   
    25   21   38 1   
    26   23   24 1   
    27   23   25 1   
    28   23   29 1   
    29   24   26 1   
    30   24   30 1   
    31   24   31 1   
    32   25   32 1   
    33   25   33 1   
    34   25   34 1   
    35   26   35 1   
    36   26   36 1   
    37   26   37 1   
    38   38   39 1   
    39   38   46 1   
    40   39   40 1   
    41   39   42 1   
    42   39   47 1   
    43   40   41 2   
    44   40   50 1   
    45   42   43 1   
    46   42   48 1   
    47   42   49 1   
    48   43   44 1   
    49   43   45 1   
    50   50   51 1   
    51   50   54 1   
    52   51   52 1   
    53   51   55 1   
    54   51   56 1   
    55   52   53 2   
    56   52   57 1   
    57   57   58 1   
    58   57   65 1   
    59   58   59 1   
    60   58   61 1   
    61   58   66 1   
    62   59   60 2   
    63   59   69 1   
    64   61   62 1   
    65   61   67 1   
    66   61   68 1   
    67   62   63 1   
    68   62   64 1   
    69   69   70 1   
    70   69   73 1   
    71   70   71 1   
    72   70   74 1   
    73   70   75 1   
    74   71   72 2   
    75   71   76 1   
    76   76   77 1   
    77   76   85 1   
    78   77   78 1   
    79   77   80 1   
    80   77   86 1   
    81   78   79 2   
    82   78   93 1   
    83   80   81 1   
    84   80   87 1   
    85   80   88 1   
    86   81   82 1   
    87   81   89 1   
    88   81   90 1   
    89   82   83 1   
    90   82   84 2   
    91   83   91 1   
    92   83   92 1   
    93   93   94 1   
    94   93  100 1   
    95   94   95 1   
    96   94   97 1   
    97   94  101 1   
    98   95   96 2   
    99   95  109 1   
   100   97   98 1   
   101   97   99 1   
   102   97  102 1   
   103   98  103 1   
   104   98  104 1   
   105   98  105 1   
   106   99  106 1   
   107   99  107 1   
   108   99  108 1   
   109  109  110 1   
   110  109  117 1   
   111  110  111 1   
   112  110  113 1   
   113  110  118 1   
   114  111  112 2   
   115  111  123 1   
   116  113  114 1   
   117  113  119 1   
   118  113  120 1   
   119  114  115 1   
   120  114  116 2   
   121  115  121 1   
   122  115  122 1   
   123  123  124 1   
   124  123  135 1   
   125  124  125 1   
   126  124  127 1   
   127  124  136 1   
   128  125  126 2   
   129  125  144 1   
   130  127  128 1   
   131  127  137 1   
   132  127  138 1   
   133  128  129 ar  
   134  128  130 ar  
   135  129  131 ar  
   136  129  139 1   
   137  130  132 ar  
   138  130  140 1   
   139  131  133 ar  
   140  131  141 1   
   141  132  133 ar  
   142  132  142 1   
   143  133  134 1   
   144  134  143 1   
   145  144  145 1   
   146  144  153 1   
   147  145  146 1   
   148  145  148 1   
   149  145  154 1   
   150  146  147 2   
   151  146  159 1   
   152  148  149 1   
   153  148  155 1   
   154  148  156 1   
   155  149  150 1   
   156  149  157 1   
   157  149  158 1   
   158  150  151 1   
   159  150  152 1   
   160  159  160 1   
   161  159  168 1   
   162  160  161 1   
   163  160  163 1   
   164  160  169 1   
   165  161  162 2   
   166  161  174 1   
   167  163  164 1   
   168  163  170 1   
   169  163  171 1   
   170  164  165 1   
   171  164  172 1   
   172  164  173 1   
   173  165  166 1   
   174  165  167 1   
   175  174  175 1   
   176  174  179 1   
   177  175  176 1   
   178  175  177 1   
   179  175  178 1   
   180  181  182 1   
   181  181  183 1   
   182  184  185 1   
   183  184  186 1   
   184  187  188 1   
   185  187  189 1   
@<TRIPOS>SUBSTRUCTURE
     1 MOL         1 TEMP              0 ****  ****    0 ROOT
