@<TRIPOS>MOLECULE
MOL
  198   191     1     0     0
SMALL
resp


@<TRIPOS>ATOM
      1 C1          6.4840   -2.6350    0.0400 c3        1 MOL     -0.257751
      2 C2          5.1660   -2.2100   -0.6090 c         1 MOL      0.702346
      3 O1          5.0280   -1.1230   -1.0820 o         1 MOL     -0.568158
      4 H1          6.8450   -3.5470   -0.4340 hc        1 MOL      0.068950
      5 H2          7.2220   -1.8430   -0.0850 hc        1 MOL      0.068950
      6 H3          6.3230   -2.8180    1.1030 hc        1 MOL      0.068950
      7 N1          4.0160   -2.9180   -0.5040 n         1 MOL     -0.584196
      8 C3          3.6630   -4.1860    0.0670 c3        1 MOL      0.020317
      9 C4          3.1450   -5.1410   -1.0840 c         1 MOL      0.455636
     10 O2          2.8020   -6.2490   -0.8140 o         1 MOL     -0.524329
     11 C5          2.5870   -4.1510    1.2000 c3        1 MOL     -0.508228
     12 C6          2.7380   -3.0520    2.2540 c         1 MOL      0.926884
     13 O3          3.7460   -3.0390    3.0960 o         1 MOL     -0.791823
     14 O4          1.8900   -2.1600    2.3540 o         1 MOL     -0.791823
     15 H4          3.2820   -2.2250   -0.5730 hn        1 MOL      0.309581
     16 H5          4.4980   -4.6870    0.5520 h1        1 MOL      0.091895
     17 H6          2.5460   -5.1370    1.6670 hc        1 MOL      0.186834
     18 H7          1.7210   -3.9570    0.5760 hc        1 MOL      0.186834
     19 N2          3.0730   -4.6410   -2.3030 n         1 MOL     -0.264886
     20 C7          2.6300   -5.3230   -3.5290 c3        1 MOL     -0.241835
     21 C8          1.1330   -5.6480   -3.5300 c         1 MOL      0.416811
     22 O5          0.6260   -6.1320   -4.5040 o         1 MOL     -0.537351
     23 C9          2.9920   -4.5870   -4.9030 c3        1 MOL      0.130403
     24 C10         2.7440   -3.0520   -4.9970 c3        1 MOL      0.052998
     25 C11         4.4940   -4.7060   -4.9920 c3        1 MOL     -0.176459
     26 C12         1.2540   -2.7020   -5.0650 c3        1 MOL     -0.264565
     27 H8          3.4310   -3.7040   -2.4640 hn        1 MOL      0.238351
     28 H9          3.1720   -6.2680   -3.4840 h1        1 MOL      0.144270
     29 H10         2.4400   -5.0740   -5.7130 hc        1 MOL      0.039773
     30 H11         3.2950   -2.6180   -5.8330 hc        1 MOL      0.011429
     31 H12         3.1310   -2.5760   -4.0990 hc        1 MOL      0.011429
     32 H13         4.8750   -4.3250   -5.9440 hc        1 MOL      0.023838
     33 H14         4.9950   -4.1430   -4.2040 hc        1 MOL      0.023838
     34 H15         4.7980   -5.7450   -5.0190 hc        1 MOL      0.023838
     35 H16         1.1950   -1.6200   -5.1710 hc        1 MOL      0.063213
     36 H17         0.8210   -3.2170   -5.9190 hc        1 MOL      0.063213
     37 H18         0.7950   -3.0120   -4.1260 hc        1 MOL      0.063213
     38 N3          0.3850   -5.3570   -2.4460 n         1 MOL     -0.025055
     39 C13        -1.0060   -5.5900   -2.1470 c3        1 MOL     -0.056995
     40 C14        -1.2830   -5.5720   -0.6670 c         1 MOL      0.507996
     41 O6         -0.3760   -5.3280    0.1140 o         1 MOL     -0.520535
     42 C15        -1.8830   -4.5020   -2.9330 c3        1 MOL     -0.159651
     43 C16        -3.3230   -4.9910   -3.3300 c         1 MOL      0.705433
     44 O7         -3.9130   -5.9220   -2.7310 o         1 MOL     -0.714493
     45 O8         -3.7190   -4.3500   -4.2960 o         1 MOL     -0.714493
     46 H19         0.9260   -5.1390   -1.6230 hn        1 MOL      0.095636
     47 H20        -1.1640   -6.6070   -2.5050 h1        1 MOL      0.045360
     48 H21        -1.3810   -4.2160   -3.8480 hc        1 MOL      0.057092
     49 H22        -1.9490   -3.6020   -2.3080 hc        1 MOL      0.057092
     50 N4         -2.4770   -5.8130   -0.1550 n         1 MOL     -0.471518
     51 C17        -2.9650   -5.4290    1.1420 c3        1 MOL      0.111117
     52 C18        -3.3920   -3.9630    1.1800 c         1 MOL      0.670718
     53 O9         -3.0400   -3.1600    0.3200 o         1 MOL     -0.572797
     54 H23        -3.1700   -6.1500   -0.8150 hn        1 MOL      0.262268
     55 H24        -2.1840   -5.5830    1.8790 h1        1 MOL      0.026780
     56 H25        -3.7910   -6.0570    1.4850 h1        1 MOL      0.026780
     57 N5         -4.2570   -3.6070    2.1940 n         1 MOL     -0.697389
     58 C19        -4.9550   -2.3230    2.2650 c3        1 MOL      0.252726
     59 C20        -6.1710   -2.5000    3.1310 c         1 MOL      0.506128
     60 O10        -6.2470   -3.3740    3.9620 o         1 MOL     -0.527510
     61 C21        -4.0810   -1.1360    2.8200 c3        1 MOL      0.081414
     62 C22        -2.9990   -1.6180    3.8130 c         1 MOL      0.601427
     63 O11        -1.8200   -1.2300    3.6290 o         1 MOL     -0.690000
     64 O12        -3.3870   -2.2320    4.8650 o         1 MOL     -0.690000
     65 H26        -4.4410   -4.1710    3.0140 hn        1 MOL      0.325952
     66 H27        -5.3370   -1.9960    1.2970 h1        1 MOL      0.079465
     67 H28        -4.7920   -0.4510    3.2780 hc        1 MOL     -0.076857
     68 H29        -3.5740   -0.7190    1.9570 hc        1 MOL     -0.076857
     69 N6         -7.1790   -1.5690    3.1290 n         1 MOL     -0.537722
     70 C23        -7.5000   -0.4640    2.1820 c3        1 MOL      0.129769
     71 C24        -8.2710   -0.9240    0.9300 c         1 MOL      0.342482
     72 O13        -8.7910   -2.0520    0.9160 o         1 MOL     -0.472669
     73 H30        -7.9160   -1.8120    3.7760 hn        1 MOL      0.287117
     74 H31        -6.5490    0.0250    1.9790 h1        1 MOL      0.069550
     75 H32        -7.9150    0.3740    2.7390 h1        1 MOL      0.069550
     76 N7         -8.3890   -0.0740   -0.1490 n         1 MOL     -0.367797
     77 C25        -7.5940    1.1650   -0.5320 c3        1 MOL      0.057531
     78 C26        -6.0680    1.0830   -0.6660 c         1 MOL      0.580950
     79 O14        -5.6010    0.0470   -0.2910 o         1 MOL     -0.485352
     80 C27        -8.0810    2.4420    0.2780 c3        1 MOL      0.221366
     81 C28        -9.5900    2.7410    0.2640 c3        1 MOL     -0.355473
     82 C29       -10.0290    4.0970    0.9390 c         1 MOL      0.749556
     83 N8         -9.1900    5.1190    0.8520 n         1 MOL     -0.839305
     84 O15       -11.0760    4.2590    1.5200 o         1 MOL     -0.568579
     85 H33        -8.9490   -0.4790   -0.8850 hn        1 MOL      0.279335
     86 H34        -7.9820    1.4140   -1.5200 h1        1 MOL      0.038274
     87 H35        -7.6660    3.3620   -0.1420 hc        1 MOL     -0.099709
     88 H36        -7.6230    2.4620    1.2700 hc        1 MOL     -0.099709
     89 H37       -10.1420    1.8610    0.5830 hc        1 MOL      0.074073
     90 H38        -9.9070    2.8030   -0.7790 hc        1 MOL      0.074073
     91 H39        -8.3040    4.9830    0.3770 hn        1 MOL      0.375744
     92 H40        -9.4590    6.0550    1.1410 hn        1 MOL      0.375744
     93 N9         -5.2700    2.0400   -1.0920 n         1 MOL     -0.514193
     94 C30        -3.8350    2.0850   -0.7890 c3        1 MOL     -0.295392
     95 C31        -3.0590    1.4290   -1.9110 c         1 MOL      0.950174
     96 O16        -3.4430    1.4880   -3.0950 o         1 MOL     -0.634280
     97 C32        -3.4400    3.5700   -0.3770 c3        1 MOL      0.121253
     98 C33        -1.9610    3.7930   -0.2580 c3        1 MOL     -0.285926
     99 C34        -4.0220    3.7890    1.0470 c3        1 MOL     -0.285926
    100 H41        -5.7030    2.8540   -1.5190 hn        1 MOL      0.277285
    101 H42        -3.6730    1.4610    0.0890 h1        1 MOL      0.203590
    102 H43        -3.8970    4.3100   -1.0430 hc        1 MOL      0.045621
    103 H44        -1.5550    3.1480    0.5240 hc        1 MOL      0.097448
    104 H45        -1.4630    3.7120   -1.2140 hc        1 MOL      0.097448
    105 H46        -1.7730    4.8290    0.0160 hc        1 MOL      0.097448
    106 H47        -3.8720    4.7930    1.4430 hc        1 MOL      0.097448
    107 H48        -5.1030    3.6310    1.0340 hc        1 MOL      0.097448
    108 H49        -3.6250    3.1540    1.8270 hc        1 MOL      0.097448
    109 N10        -1.9550    0.7900   -1.5410 n         1 MOL     -0.810821
    110 C35        -1.0280   -0.0110   -2.4630 c3        1 MOL      0.271700
    111 C36         0.2140    0.8340   -2.7420 c         1 MOL      0.227564
    112 O17         1.1700    0.2200   -3.2860 o         1 MOL     -0.489307
    113 C37        -0.7310   -1.3420   -1.7750 c3        1 MOL     -0.112909
    114 C38         0.0590   -1.2830   -0.4500 c         1 MOL      0.853315
    115 N11        -0.4020   -1.8940    0.6380 n         1 MOL     -1.177986
    116 O18         1.0170   -0.5570   -0.3380 o         1 MOL     -0.623862
    117 H50        -1.7140    0.7830   -0.5630 hn        1 MOL      0.377651
    118 H51        -1.5330   -0.3250   -3.3730 h1        1 MOL      0.100570
    119 H52        -0.2010   -1.9420   -2.5170 hc        1 MOL      0.034388
    120 H53        -1.6760   -1.7920   -1.4610 hc        1 MOL      0.034388
    121 H54        -1.3150   -2.3370    0.6760 hn        1 MOL      0.560492
    122 H55         0.1140   -1.6490    1.4700 hn        1 MOL      0.560492
    123 N12         0.2490    2.1900   -2.5230 n         1 MOL      0.032853
    124 C39         1.3710    2.9670   -2.7220 c3        1 MOL      0.025836
    125 C40         1.9590    3.5720   -1.4160 c         1 MOL      0.574549
    126 O19         1.2630    3.6490   -0.3720 o         1 MOL     -0.506182
    127 C41         0.9810    4.0460   -3.7370 c3        1 MOL      0.214919
    128 C42        -0.1430    5.0020   -3.4230 ca        1 MOL      0.043902
    129 C43         0.1190    6.1350   -2.5710 ca        1 MOL     -0.118336
    130 C44        -1.4390    4.7750   -3.9700 ca        1 MOL     -0.118336
    131 C45        -1.0010    6.9900   -2.3040 ca        1 MOL     -0.331205
    132 C46        -2.4790    5.6840   -3.5840 ca        1 MOL     -0.331205
    133 C47        -2.2490    6.8250   -2.8040 ca        1 MOL      0.353047
    134 O20        -3.2930    7.6390   -2.5140 oh        1 MOL     -0.446108
    135 H56        -0.5760    2.6550   -2.2030 hn        1 MOL     -0.068126
    136 H57         2.1430    2.3590   -3.2040 h1        1 MOL      0.067620
    137 H58         0.6300    3.5280   -4.6220 hc        1 MOL     -0.093009
    138 H59         1.7930    4.7300   -3.9970 hc        1 MOL     -0.093009
    139 H60         1.0530    6.2840   -2.0460 ha        1 MOL      0.136531
    140 H61        -1.6420    3.9790   -4.6690 ha        1 MOL      0.136531
    141 H62        -0.9770    7.8280   -1.6210 ha        1 MOL      0.170587
    142 H63        -3.4800    5.4620   -3.9340 ha        1 MOL      0.170587
    143 H64        -3.9500    7.3020   -3.1320 ho        1 MOL      0.296697
    144 N13         3.2490    3.9130   -1.4200 n         1 MOL     -0.703886
    145 C48         3.9570    4.6500   -0.3930 c3        1 MOL      0.467561
    146 C49         5.3410    4.0100   -0.0720 c         1 MOL      0.205544
    147 O21         6.3420    4.6640    0.0110 o         1 MOL     -0.451994
    148 C50         4.0420    6.1090   -0.9120 c3        1 MOL     -0.116576
    149 C51         4.5180    7.1920    0.0880 c3        1 MOL      0.102073
    150 C52         3.5570    7.4040    1.2600 c         1 MOL      0.553194
    151 O22         3.6860    6.6300    2.3020 o         1 MOL     -0.693135
    152 O23         2.5380    8.1230    1.1630 o         1 MOL     -0.693135
    153 H65         3.7110    3.8420   -2.3200 hn        1 MOL      0.301334
    154 H66         3.3210    4.6160    0.4870 h1        1 MOL      0.069844
    155 H67         3.0520    6.3720   -1.2910 hc        1 MOL      0.015872
    156 H68         4.6970    6.1330   -1.7870 hc        1 MOL      0.015872
    157 H69         4.5140    8.1440   -0.4490 hc        1 MOL     -0.080503
    158 H70         5.5250    6.9950    0.4640 hc        1 MOL     -0.080503
    159 N14         5.4120    2.7060    0.0050 n         1 MOL     -0.320065
    160 C53         6.6840    1.9300   -0.0390 c3        1 MOL     -0.020411
    161 C54         6.9290    1.2080   -1.4040 c         1 MOL      0.429983
    162 O24         7.8890    0.4700   -1.5560 o         1 MOL     -0.543449
    163 C55         6.7030    1.0170    1.2380 c3        1 MOL     -0.009100
    164 C56         6.8030    1.7970    2.5870 c3        1 MOL     -0.129431
    165 C57         6.2740    1.1450    3.8130 c         1 MOL      0.597356
    166 O25         6.7950    1.5060    4.8790 o         1 MOL     -0.705270
    167 O26         5.2970    0.3250    3.7280 o         1 MOL     -0.705270
    168 H71         4.5560    2.1790   -0.0410 hn        1 MOL      0.263687
    169 H72         7.5500    2.5970   -0.0660 h1        1 MOL      0.091617
    170 H73         7.5860    0.3910    1.0770 hc        1 MOL      0.010275
    171 H74         5.7950    0.4240    1.1540 hc        1 MOL      0.010275
    172 H75         6.2150    2.7160    2.5440 hc        1 MOL      0.068433
    173 H76         7.8130    2.2010    2.6660 hc        1 MOL      0.068433
    174 N15         5.9890    1.4430   -2.3090 n         1 MOL     -0.134038
    175 C58         5.9920    1.2780   -3.7700 c3        1 MOL     -0.267997
    176 H77         5.5110    0.3350   -4.0290 h1        1 MOL      0.098985
    177 H78         5.4470    2.1020   -4.2310 h1        1 MOL      0.098985
    178 H79         7.0200    1.2740   -4.1340 h1        1 MOL      0.098985
    179 H80         5.1340    1.8950   -2.0210 hn        1 MOL      0.186453
    180 Ca1         3.1170   -0.8040    4.2320 Ca        1 MOL      1.615839
    181 O27         0.5430   -0.3220    4.7270 oh        1 MOL     -0.782120
    182 H81         0.1500    0.1980    5.4260 ho        1 MOL      0.390479
    183 H82        -0.1690   -0.8740    4.4020 ho        1 MOL      0.390479
    184 O28         5.2510   -2.1630    5.2340 oh        1 MOL     -0.782120
    185 H83         6.0290   -1.6340    5.4180 ho        1 MOL      0.390479
    186 H84         5.5770   -2.9120    4.7360 ho        1 MOL      0.390479
    187 O29         2.9830    0.0030    6.7450 oh        1 MOL     -0.782120
    188 H85         3.5910    0.7280    6.8920 ho        1 MOL      0.390479
    189 H86         2.4700   -0.0490    7.5510 ho        1 MOL      0.390479
    190 O30         2.0500   -2.8700    5.9080 oh        1 MOL     -0.782120
    191 H87         1.7560   -2.6660    6.8000 ho        1 MOL      0.390479
    192 H88         1.5220   -3.6290    5.6590 ho        1 MOL      0.390479
    193 O31         2.9840    1.9700    4.6150 oh        1 MOL     -0.782120
    194 H89         3.3960    2.6330    4.0750 ho        1 MOL      0.390479
    195 H90         3.4370    2.0150    5.4590 ho        1 MOL      0.390479
    196 O32         2.5920    0.5430    1.8460 oh        1 MOL     -0.782120
    197 H91         2.0910    0.0110    1.2230 ho        1 MOL      0.390479
    198 H92         3.4370    0.6610    1.4200 ho        1 MOL      0.390479
@<TRIPOS>BOND
     1    1    2 1   
     2    1    4 1   
     3    1    5 1   
     4    1    6 1   
     5    2    3 2   
     6    2    7 1   
     7    7    8 1   
     8    7   15 1   
     9    8    9 1   
    10    8   11 1   
    11    8   16 1   
    12    9   10 2   
    13    9   19 1   
    14   11   12 1   
    15   11   17 1   
    16   11   18 1   
    17   12   13 1   
    18   12   14 1   
    19   19   20 1   
    20   19   27 1   
    21   20   21 1   
    22   20   23 1   
    23   20   28 1   
    24   21   22 2   
    25   21   38 1   
    26   23   24 1   
    27   23   25 1   
    28   23   29 1   
    29   24   26 1   
    30   24   30 1   
    31   24   31 1   
    32   25   32 1   
    33   25   33 1   
    34   25   34 1   
    35   26   35 1   
    36   26   36 1   
    37   26   37 1   
    38   38   39 1   
    39   38   46 1   
    40   39   40 1   
    41   39   42 1   
    42   39   47 1   
    43   40   41 2   
    44   40   50 1   
    45   42   43 1   
    46   42   48 1   
    47   42   49 1   
    48   43   44 1   
    49   43   45 1   
    50   50   51 1   
    51   50   54 1   
    52   51   52 1   
    53   51   55 1   
    54   51   56 1   
    55   52   53 2   
    56   52   57 1   
    57   57   58 1   
    58   57   65 1   
    59   58   59 1   
    60   58   61 1   
    61   58   66 1   
    62   59   60 2   
    63   59   69 1   
    64   61   62 1   
    65   61   67 1   
    66   61   68 1   
    67   62   63 1   
    68   62   64 1   
    69   69   70 1   
    70   69   73 1   
    71   70   71 1   
    72   70   74 1   
    73   70   75 1   
    74   71   72 2   
    75   71   76 1   
    76   76   77 1   
    77   76   85 1   
    78   77   78 1   
    79   77   80 1   
    80   77   86 1   
    81   78   79 2   
    82   78   93 1   
    83   80   81 1   
    84   80   87 1   
    85   80   88 1   
    86   81   82 1   
    87   81   89 1   
    88   81   90 1   
    89   82   83 1   
    90   82   84 2   
    91   83   91 1   
    92   83   92 1   
    93   93   94 1   
    94   93  100 1   
    95   94   95 1   
    96   94   97 1   
    97   94  101 1   
    98   95   96 2   
    99   95  109 1   
   100   97   98 1   
   101   97   99 1   
   102   97  102 1   
   103   98  103 1   
   104   98  104 1   
   105   98  105 1   
   106   99  106 1   
   107   99  107 1   
   108   99  108 1   
   109  109  110 1   
   110  109  117 1   
   111  110  111 1   
   112  110  113 1   
   113  110  118 1   
   114  111  112 2   
   115  111  123 1   
   116  113  114 1   
   117  113  119 1   
   118  113  120 1   
   119  114  115 1   
   120  114  116 2   
   121  115  121 1   
   122  115  122 1   
   123  123  124 1   
   124  123  135 1   
   125  124  125 1   
   126  124  127 1   
   127  124  136 1   
   128  125  126 2   
   129  125  144 1   
   130  127  128 1   
   131  127  137 1   
   132  127  138 1   
   133  128  129 ar  
   134  128  130 ar  
   135  129  131 ar  
   136  129  139 1   
   137  130  132 ar  
   138  130  140 1   
   139  131  133 ar  
   140  131  141 1   
   141  132  133 ar  
   142  132  142 1   
   143  133  134 1   
   144  134  143 1   
   145  144  145 1   
   146  144  153 1   
   147  145  146 1   
   148  145  148 1   
   149  145  154 1   
   150  146  147 2   
   151  146  159 1   
   152  148  149 1   
   153  148  155 1   
   154  148  156 1   
   155  149  150 1   
   156  149  157 1   
   157  149  158 1   
   158  150  151 1   
   159  150  152 1   
   160  159  160 1   
   161  159  168 1   
   162  160  161 1   
   163  160  163 1   
   164  160  169 1   
   165  161  162 2   
   166  161  174 1   
   167  163  164 1   
   168  163  170 1   
   169  163  171 1   
   170  164  165 1   
   171  164  172 1   
   172  164  173 1   
   173  165  166 1   
   174  165  167 1   
   175  174  175 1   
   176  174  179 1   
   177  175  176 1   
   178  175  177 1   
   179  175  178 1   
   180  181  182 1   
   181  181  183 1   
   182  184  185 1   
   183  184  186 1   
   184  187  188 1   
   185  187  189 1   
   186  190  191 1   
   187  190  192 1   
   188  193  194 1   
   189  193  195 1   
   190  196  197 1   
   191  196  198 1   
@<TRIPOS>SUBSTRUCTURE
     1 MOL         1 TEMP              0 ****  ****    0 ROOT
