@<TRIPOS>MOLECULE
MOL
  186   183     1     0     0
SMALL
resp


@<TRIPOS>ATOM
      1 C1        -13.3670    4.2980    3.3170 c3        1 MOL     -0.285367
      2 C2        -13.3450    3.4350    2.0410 c         1 MOL      0.504188
      3 O1        -14.2630    2.5970    1.8610 o         1 MOL     -0.606230
      4 H1        -13.9500    3.7930    4.0870 hc        1 MOL      0.075555
      5 H2        -12.3480    4.4490    3.6730 hc        1 MOL      0.075555
      6 H3        -13.8210    5.2640    3.0960 hc        1 MOL      0.075555
      7 N1        -12.3030    3.4470    1.2710 n         1 MOL      0.205975
      8 C3        -11.9670    2.5030    0.1920 c3        1 MOL     -0.663365
      9 C4        -10.6600    1.8070    0.4800 c         1 MOL      0.563449
     10 O2         -9.8020    2.4010    1.1360 o         1 MOL     -0.631538
     11 C5        -11.8470    3.2830   -1.1360 c3        1 MOL      0.135112
     12 C6        -11.2650    4.6870   -1.0320 c         1 MOL      0.464807
     13 O3        -10.5620    5.0360    0.0080 o         1 MOL     -0.586903
     14 O4        -11.4660    5.4840   -1.9530 o         1 MOL     -0.586903
     15 H4        -11.6430    4.2100    1.3510 hn        1 MOL     -0.065868
     16 H5        -12.7340    1.7240    0.1420 h1        1 MOL      0.198496
     17 H6        -12.8440    3.2710   -1.5830 hc        1 MOL      0.044497
     18 H7        -11.2500    2.6990   -1.8390 hc        1 MOL      0.044497
     19 N2        -10.6250    0.5480    0.0700 n         1 MOL      0.014128
     20 C7         -9.6980   -0.5240    0.4350 c3        1 MOL     -0.679205
     21 C8         -8.3140   -0.2440   -0.1290 c         1 MOL      0.840361
     22 O5         -7.3750   -0.9330    0.1210 o         1 MOL     -0.483599
     23 C9        -10.2960   -1.8670   -0.0900 c3        1 MOL     -0.088337
     24 C10        -9.5360   -3.0680    0.4570 c3        1 MOL      0.349428
     25 C11       -10.4780   -4.2580    0.2750 c3        1 MOL     -0.180589
     26 C12        -9.7530   -5.5110    0.8100 c3        1 MOL      0.217473
     27 N3        -10.6710   -6.5880    0.9490 n4        1 MOL     -0.248821
     28 H8        -11.4750    0.2510   -0.3780 hn        1 MOL      0.172957
     29 H9         -9.6580   -0.5130    1.5220 h1        1 MOL      0.233515
     30 H10       -10.2780   -1.7940   -1.1820 hc        1 MOL      0.074149
     31 H11       -11.3200   -1.9470    0.2580 hc        1 MOL      0.074149
     32 H12        -9.3150   -3.0090    1.5240 hc        1 MOL     -0.046980
     33 H13        -8.5910   -3.1970   -0.0840 hc        1 MOL     -0.046980
     34 H14       -10.6670   -4.2800   -0.7990 hc        1 MOL      0.017093
     35 H15       -11.4220   -4.1570    0.8000 hc        1 MOL      0.017093
     36 H16        -9.4540   -5.2580    1.8260 hx        1 MOL      0.032936
     37 H17        -8.9230   -5.7220    0.1500 hx        1 MOL      0.032936
     38 H18       -11.1930   -6.7580    0.1100 hn        1 MOL      0.284945
     39 H19       -10.1870   -7.3910    1.3290 hn        1 MOL      0.284945
     40 H20       -11.4350   -6.2930    1.5380 hn        1 MOL      0.284945
     41 N4         -8.2370    0.6980   -1.0740 n         1 MOL     -0.322260
     42 C13        -6.8740    1.0070   -1.6460 c3        1 MOL     -0.372773
     43 C14        -6.0890    1.7950   -0.5490 c         1 MOL      0.482249
     44 O6         -6.6850    2.3910    0.3060 o         1 MOL     -0.647784
     45 C15        -6.9380    1.7510   -2.9580 c3        1 MOL     -0.108431
     46 C16        -7.6570    3.1120   -2.9510 c         1 MOL      0.622619
     47 O7         -7.7060    3.6380   -4.0480 o         1 MOL     -0.638064
     48 O8         -8.1500    3.6090   -1.9100 o         1 MOL     -0.638064
     49 H21        -9.0280    1.3100   -1.2370 hn        1 MOL      0.219069
     50 H22        -6.3420    0.0770   -1.8240 h1        1 MOL      0.198446
     51 H23        -7.4710    1.0860   -3.6420 hc        1 MOL      0.088557
     52 H24        -5.9970    1.8650   -3.5040 hc        1 MOL      0.088557
     53 N5         -4.7370    1.8290   -0.5910 n         1 MOL     -0.412633
     54 C17        -3.9250    0.8320   -1.2550 c3        1 MOL     -0.056752
     55 C18        -4.0410   -0.5100   -0.5440 c         1 MOL      0.674913
     56 O9         -4.0320   -0.4970    0.6900 o         1 MOL     -0.501064
     57 H25        -4.2580    2.3700    0.1170 hn        1 MOL      0.307423
     58 H26        -2.8730    1.1240   -1.1980 h1        1 MOL      0.075735
     59 H27        -4.2490    0.7650   -2.2890 h1        1 MOL      0.075735
     60 N6         -4.1380   -1.5900   -1.3490 n         1 MOL     -0.719561
     61 C19        -4.2830   -2.9070   -0.8190 c3        1 MOL      0.285941
     62 C20        -3.0910   -3.8360   -1.2620 c         1 MOL      0.401063
     63 O10        -2.2820   -3.5960   -2.1160 o         1 MOL     -0.480947
     64 C21        -5.6000   -3.4310   -1.3090 c3        1 MOL      0.048402
     65 C22        -6.1930   -4.6090   -0.5680 c         1 MOL      0.559879
     66 O11        -6.9960   -5.3270   -1.1530 o         1 MOL     -0.688021
     67 O12        -5.7370   -4.8800    0.5650 o         1 MOL     -0.688021
     68 H28        -4.1640   -1.4820   -2.3520 hn        1 MOL      0.326746
     69 H29        -4.4150   -2.8270    0.2590 h1        1 MOL     -0.033258
     70 H30        -5.6520   -3.6630   -2.3770 hc        1 MOL     -0.013482
     71 H31        -6.3690   -2.6640   -1.2120 hc        1 MOL     -0.013482
     72 N7         -3.0680   -5.0610   -0.6430 n         1 MOL     -0.189985
     73 C23        -2.4140   -6.1940   -1.2390 c3        1 MOL     -0.282696
     74 C24        -0.9210   -6.1340   -1.0130 c         1 MOL      0.560526
     75 O13        -0.2190   -7.1170   -1.2890 o         1 MOL     -0.569762
     76 H32        -3.6380   -5.1680    0.1860 hn        1 MOL      0.215020
     77 H33        -2.6180   -6.0740   -2.3060 h1        1 MOL      0.145461
     78 H34        -2.8970   -7.1280   -0.9160 h1        1 MOL      0.145461
     79 N8         -0.3770   -5.0580   -0.3980 n         1 MOL     -0.340734
     80 C25         0.9360   -4.9090    0.3370 c3        1 MOL     -0.012798
     81 C26         1.4780   -3.4660    0.3230 c         1 MOL      0.638382
     82 O14         0.7240   -2.6060   -0.0560 o         1 MOL     -0.486953
     83 C27         0.7940   -5.3370    1.7670 c3        1 MOL      0.297452
     84 C28        -0.3430   -4.7200    2.5120 c3        1 MOL     -0.367377
     85 O15         0.7080   -6.7310    1.8760 oh        1 MOL     -0.640564
     86 H35        -0.9840   -4.2570   -0.3280 hn        1 MOL      0.166119
     87 H36         1.7140   -5.4880   -0.1610 h1        1 MOL      0.088052
     88 H37         1.6490   -4.9880    2.3440 h1        1 MOL      0.047211
     89 H38        -0.2120   -6.9930    1.7890 ho        1 MOL      0.420113
     90 H39        -1.3220   -5.1890    2.3760 hc        1 MOL      0.092768
     91 H40        -0.2680   -4.8320    3.5850 hc        1 MOL      0.092768
     92 H41        -0.3520   -3.6440    2.3530 hc        1 MOL      0.092768
     93 N9          2.7540   -3.1960    0.6020 n         1 MOL     -0.608742
     94 C29         3.4040   -1.9000    0.6860 c3        1 MOL      0.036507
     95 C30         4.7020   -1.7440   -0.0890 c         1 MOL      0.745777
     96 O16         4.7620   -0.8300   -0.8740 o         1 MOL     -0.553371
     97 C31         3.6270   -1.3820    2.1590 c3        1 MOL     -0.062490
     98 C32         2.3530   -1.6680    3.0440 c3        1 MOL      0.219442
     99 C33         3.9540    0.1630    2.1640 c3        1 MOL     -0.184668
    100 C34         2.3830   -1.3350    4.5000 c3        1 MOL     -0.275136
    101 H42         3.2930   -3.9880    0.9380 hn        1 MOL      0.260393
    102 H43         2.6950   -1.2140    0.2110 h1        1 MOL      0.073289
    103 H44         4.5040   -1.8680    2.5930 hc        1 MOL      0.012581
    104 H45         2.0970   -2.7300    3.1310 hc        1 MOL     -0.009407
    105 H46         1.4850   -1.2040    2.5740 hc        1 MOL     -0.009407
    106 H47         3.0710    0.7860    2.0340 hc        1 MOL      0.062326
    107 H48         4.4530    0.5080    3.0800 hc        1 MOL      0.062326
    108 H49         4.6690    0.3790    1.3840 hc        1 MOL      0.062326
    109 H50         2.8040   -0.3320    4.6260 hc        1 MOL      0.057929
    110 H51         1.3500   -1.3920    4.8550 hc        1 MOL      0.057929
    111 H52         2.9740   -2.0820    5.0190 hc        1 MOL      0.057929
    112 N10         5.7720   -2.5770    0.1040 n         1 MOL     -0.608726
    113 C35         7.0520   -2.4830   -0.6030 c3        1 MOL     -0.045864
    114 C36         8.1860   -2.6230    0.4120 c         1 MOL      0.698243
    115 O17         7.9240   -3.1080    1.5220 o         1 MOL     -0.560677
    116 C37         7.2040   -3.5760   -1.7460 c3        1 MOL      0.324451
    117 C38         6.1130   -3.5610   -2.8410 c3        1 MOL     -0.252064
    118 O18         8.4050   -3.4510   -2.4210 oh        1 MOL     -0.650780
    119 H53         5.6470   -3.1670    0.9110 hn        1 MOL      0.314584
    120 H54         7.1510   -1.5140   -1.0690 h1        1 MOL      0.128724
    121 H55         7.1590   -4.5640   -1.2960 h1        1 MOL     -0.007080
    122 H56         8.3810   -4.2080   -3.0210 ho        1 MOL      0.407365
    123 H57         6.2640   -4.3260   -3.6050 hc        1 MOL      0.072377
    124 H58         5.1200   -3.7170   -2.4170 hc        1 MOL      0.072377
    125 H59         6.1190   -2.6510   -3.4460 hc        1 MOL      0.072377
    126 N11         9.3880   -2.2160    0.0870 n         1 MOL     -0.645380
    127 C39        10.5850   -2.1440    0.9430 c3        1 MOL      0.011095
    128 C40        10.8550   -0.6890    1.3470 c         1 MOL      0.663451
    129 O19        11.2810   -0.5900    2.4980 o         1 MOL     -0.578944
    130 C41        11.8160   -2.7070    0.1280 c3        1 MOL      0.336397
    131 C42        13.1120   -2.8490    0.9630 c3        1 MOL     -0.347559
    132 O20        12.0910   -1.9430   -0.9820 oh        1 MOL     -0.600567
    133 H60         9.4270   -1.8820   -0.8610 hn        1 MOL      0.340044
    134 H61        10.4880   -2.8860    1.7270 h1        1 MOL      0.118268
    135 H62        11.6250   -3.7080   -0.2660 h1        1 MOL      0.013662
    136 H63        12.8680   -2.3490   -1.3810 ho        1 MOL      0.396541
    137 H64        13.6250   -1.8900    1.0540 hc        1 MOL      0.089139
    138 H65        12.9110   -3.1570    1.9860 hc        1 MOL      0.089139
    139 H66        13.8460   -3.5670    0.5890 hc        1 MOL      0.089139
    140 N12        10.7950    0.3540    0.5250 n         1 MOL     -0.484016
    141 C43        11.1340    1.7580    0.7780 c3        1 MOL     -0.015778
    142 C44        10.2480    2.6790   -0.0040 c         1 MOL      0.648951
    143 O21         9.8800    2.4100   -1.1130 o         1 MOL     -0.547023
    144 C45        12.6210    1.9080    0.5170 c3        1 MOL     -0.115483
    145 C46        12.9490    1.7750   -0.9910 c3        1 MOL      0.033033
    146 C47        14.5080    1.6420   -1.1410 c3        1 MOL     -0.044018
    147 C48        14.9010    2.1710   -2.5080 c3        1 MOL     -0.056347
    148 N13        16.3960    2.0150   -2.6710 n4        1 MOL     -0.015411
    149 H67        10.5780    0.0560   -0.4160 hn        1 MOL      0.271446
    150 H68        11.1070    1.8760    1.8550 h1        1 MOL      0.105901
    151 H69        13.1680    1.1310    1.0600 hc        1 MOL      0.057107
    152 H70        12.9320    2.8910    0.8800 hc        1 MOL      0.057107
    153 H71        12.5240    2.6610   -1.4650 hc        1 MOL      0.032738
    154 H72        12.5880    0.7980   -1.3340 hc        1 MOL      0.032738
    155 H73        14.7790    0.5920   -1.0310 hc        1 MOL      0.024214
    156 H74        14.9480    2.3460   -0.4380 hc        1 MOL      0.024214
    157 H75        14.6010    3.2060   -2.3940 hx        1 MOL      0.096792
    158 H76        14.3960    1.6390   -3.3190 hx        1 MOL      0.096792
    159 H77        16.7300    2.4860   -3.5030 hn        1 MOL      0.174407
    160 H78        16.8120    2.4600   -1.8580 hn        1 MOL      0.174407
    161 H79        16.7950    1.0950   -2.5900 hn        1 MOL      0.174407
    162 N14         9.8360    3.8160    0.5930 n         1 MOL     -0.682185
    163 C49         8.8050    4.6910   -0.0380 c3        1 MOL      0.463486
    164 C50         7.3950    4.0020    0.0230 c         1 MOL      0.354559
    165 O22         6.7870    3.8260   -0.9910 o         1 MOL     -0.526434
    166 C51         8.8650    6.1810    0.3880 c3        1 MOL     -0.137585
    167 C52         7.5220    6.8520    0.0730 c3        1 MOL     -0.133963
    168 C53         7.4930    8.3090    0.5010 c         1 MOL      0.685648
    169 O23         6.4060    8.9430    0.4890 o         1 MOL     -0.646709
    170 O24         8.5860    8.8940    0.8480 o         1 MOL     -0.646709
    171 H80        10.3320    4.0300    1.4520 hn        1 MOL      0.301388
    172 H81         9.0570    4.8000   -1.0890 h1        1 MOL      0.016109
    173 H82         9.7120    6.5880   -0.1570 hc        1 MOL      0.023832
    174 H83         8.9920    6.1620    1.4660 hc        1 MOL      0.023832
    175 H84         6.7440    6.2600    0.5650 hc        1 MOL      0.042975
    176 H85         7.4110    6.7370   -1.0090 hc        1 MOL      0.042975
    177 N15         6.8520    3.5280    1.1470 n         1 MOL     -0.265008
    178 C54         7.1740    3.8580    2.4950 c3        1 MOL     -0.264305
    179 H86         6.4550    3.3880    3.1650 h1        1 MOL      0.103508
    180 H87         8.1760    3.4970    2.7290 h1        1 MOL      0.103508
    181 H88         7.1370    4.9390    2.6240 h1        1 MOL      0.103508
    182 H89         5.9960    3.0220    0.9670 hn        1 MOL      0.274325
    183 Ca1        -8.0540    4.7110    0.5560 Ca        1 MOL      1.786772
    184 O25        -8.3510    7.2730    0.0060 oh        1 MOL     -1.015669
    185 H90        -8.8610    7.6840    0.7070 ho        1 MOL      0.485337
    186 H91        -8.3490    7.9340   -0.6930 ho        1 MOL      0.485337
@<TRIPOS>BOND
     1    1    2 1   
     2    1    4 1   
     3    1    5 1   
     4    1    6 1   
     5    2    3 2   
     6    2    7 1   
     7    7    8 1   
     8    7   15 1   
     9    8    9 1   
    10    8   11 1   
    11    8   16 1   
    12    9   10 2   
    13    9   19 1   
    14   11   12 1   
    15   11   17 1   
    16   11   18 1   
    17   12   13 1   
    18   12   14 1   
    19   19   20 1   
    20   19   28 1   
    21   20   21 1   
    22   20   23 1   
    23   20   29 1   
    24   21   22 2   
    25   21   41 1   
    26   23   24 1   
    27   23   30 1   
    28   23   31 1   
    29   24   25 1   
    30   24   32 1   
    31   24   33 1   
    32   25   26 1   
    33   25   34 1   
    34   25   35 1   
    35   26   27 1   
    36   26   36 1   
    37   26   37 1   
    38   27   38 1   
    39   27   39 1   
    40   27   40 1   
    41   41   42 1   
    42   41   49 1   
    43   42   43 1   
    44   42   45 1   
    45   42   50 1   
    46   43   44 2   
    47   43   53 1   
    48   45   46 1   
    49   45   51 1   
    50   45   52 1   
    51   46   47 1   
    52   46   48 1   
    53   53   54 1   
    54   53   57 1   
    55   54   55 1   
    56   54   58 1   
    57   54   59 1   
    58   55   56 2   
    59   55   60 1   
    60   60   61 1   
    61   60   68 1   
    62   61   62 1   
    63   61   64 1   
    64   61   69 1   
    65   62   63 2   
    66   62   72 1   
    67   64   65 1   
    68   64   70 1   
    69   64   71 1   
    70   65   66 1   
    71   65   67 1   
    72   72   73 1   
    73   72   76 1   
    74   73   74 1   
    75   73   77 1   
    76   73   78 1   
    77   74   75 2   
    78   74   79 1   
    79   79   80 1   
    80   79   86 1   
    81   80   81 1   
    82   80   83 1   
    83   80   87 1   
    84   81   82 2   
    85   81   93 1   
    86   83   84 1   
    87   83   85 1   
    88   83   88 1   
    89   84   90 1   
    90   84   91 1   
    91   84   92 1   
    92   85   89 1   
    93   93   94 1   
    94   93  101 1   
    95   94   95 1   
    96   94   97 1   
    97   94  102 1   
    98   95   96 2   
    99   95  112 1   
   100   97   98 1   
   101   97   99 1   
   102   97  103 1   
   103   98  100 1   
   104   98  104 1   
   105   98  105 1   
   106   99  106 1   
   107   99  107 1   
   108   99  108 1   
   109  100  109 1   
   110  100  110 1   
   111  100  111 1   
   112  112  113 1   
   113  112  119 1   
   114  113  114 1   
   115  113  116 1   
   116  113  120 1   
   117  114  115 2   
   118  114  126 1   
   119  116  117 1   
   120  116  118 1   
   121  116  121 1   
   122  117  123 1   
   123  117  124 1   
   124  117  125 1   
   125  118  122 1   
   126  126  127 1   
   127  126  133 1   
   128  127  128 1   
   129  127  130 1   
   130  127  134 1   
   131  128  129 2   
   132  128  140 1   
   133  130  131 1   
   134  130  132 1   
   135  130  135 1   
   136  131  137 1   
   137  131  138 1   
   138  131  139 1   
   139  132  136 1   
   140  140  141 1   
   141  140  149 1   
   142  141  142 1   
   143  141  144 1   
   144  141  150 1   
   145  142  143 2   
   146  142  162 1   
   147  144  145 1   
   148  144  151 1   
   149  144  152 1   
   150  145  146 1   
   151  145  153 1   
   152  145  154 1   
   153  146  147 1   
   154  146  155 1   
   155  146  156 1   
   156  147  148 1   
   157  147  157 1   
   158  147  158 1   
   159  148  159 1   
   160  148  160 1   
   161  148  161 1   
   162  162  163 1   
   163  162  171 1   
   164  163  164 1   
   165  163  166 1   
   166  163  172 1   
   167  164  165 2   
   168  164  177 1   
   169  166  167 1   
   170  166  173 1   
   171  166  174 1   
   172  167  168 1   
   173  167  175 1   
   174  167  176 1   
   175  168  169 1   
   176  168  170 1   
   177  177  178 1   
   178  177  182 1   
   179  178  179 1   
   180  178  180 1   
   181  178  181 1   
   182  184  185 1   
   183  184  186 1   
@<TRIPOS>SUBSTRUCTURE
     1 MOL         1 TEMP              0 ****  ****    0 ROOT
