@<TRIPOS>MOLECULE
MOL
  178   175     1     0     0
SMALL
resp


@<TRIPOS>ATOM
      1 C1         13.8470   -3.7940   -2.0370 c3        1 MOL     -0.401773
      2 C2         13.1220   -2.4400   -2.0840 c         1 MOL      0.544658
      3 O1         13.6660   -1.3760   -2.4050 o         1 MOL     -0.565180
      4 H1         14.8900   -3.6580   -2.3270 hc        1 MOL      0.106450
      5 H2         13.8030   -4.1970   -1.0260 hc        1 MOL      0.106450
      6 H3         13.3670   -4.4890   -2.7260 hc        1 MOL      0.106450
      7 N1         11.8490   -2.4950   -1.7400 n         1 MOL     -0.351243
      8 C3         10.9860   -3.5180   -1.2060 c3        1 MOL      0.038709
      9 C4         11.1250   -3.5280    0.4140 c         1 MOL      0.463219
     10 O2         10.7220   -4.4930    1.0460 o         1 MOL     -0.556977
     11 C5          9.5620   -3.2570   -1.6630 c3        1 MOL     -0.195464
     12 C6          8.8830   -1.8930   -1.4330 c         1 MOL      0.667064
     13 O3          7.6920   -1.7320   -1.7610 o         1 MOL     -0.722180
     14 O4          9.4860   -0.9260   -0.8330 o         1 MOL     -0.722180
     15 H4         11.4100   -1.6050   -1.9160 hn        1 MOL      0.239427
     16 H5         11.1650   -4.5120   -1.6070 h1        1 MOL      0.071872
     17 H6          8.8470   -3.9530   -1.2200 hc        1 MOL      0.076816
     18 H7          9.5420   -3.4970   -2.7320 hc        1 MOL      0.076816
     19 N2         11.6750   -2.5010    1.0340 n         1 MOL     -0.298842
     20 C7         11.8670   -2.3170    2.4790 c3        1 MOL      0.023071
     21 C8         10.8860   -1.3350    3.2620 c         1 MOL      0.511445
     22 O5         10.9520   -1.3100    4.4670 o         1 MOL     -0.536624
     23 C9         13.2770   -1.8250    2.6890 c3        1 MOL     -0.071195
     24 H8         11.9330   -1.7000    0.4760 hn        1 MOL      0.253201
     25 H9         11.8420   -3.2850    2.9920 h1        1 MOL      0.098092
     26 H10        13.4810   -0.8430    2.2690 hc        1 MOL      0.024089
     27 H11        13.5770   -1.7860    3.7400 hc        1 MOL      0.024089
     28 H12        13.9660   -2.5520    2.2610 hc        1 MOL      0.024089
     29 N3         10.0170   -0.7170    2.4720 n         1 MOL     -0.416273
     30 C10         8.9170    0.0870    3.0420 c3        1 MOL      0.161779
     31 C11         7.4620   -0.2340    2.4460 c         1 MOL      0.512609
     32 O6          7.3120   -0.7970    1.3410 o         1 MOL     -0.532434
     33 C12         9.2110    1.5550    2.9290 c3        1 MOL     -0.294109
     34 C13         9.5080    2.1000    1.5260 c         1 MOL      0.729500
     35 O7          8.6070    2.1970    0.6850 o         1 MOL     -0.686299
     36 O8         10.6540    2.4810    1.2010 o         1 MOL     -0.686299
     37 H13        10.1310   -0.7810    1.4740 hn        1 MOL      0.313901
     38 H14         8.8210   -0.1580    4.0950 h1        1 MOL      0.037134
     39 H15        10.0510    1.7740    3.5840 hc        1 MOL      0.056178
     40 H16         8.2790    2.0560    3.2000 hc        1 MOL      0.056178
     41 N4          6.4010    0.1180    3.1650 n         1 MOL     -0.516514
     42 C14         5.0020   -0.0730    2.7000 c3        1 MOL     -0.093476
     43 C15         4.6620    0.6520    1.3880 c         1 MOL      0.647613
     44 O9          5.5080    1.3070    0.7680 o         1 MOL     -0.585760
     45 H17         6.5260    0.8240    3.8810 hn        1 MOL      0.338652
     46 H18         4.2860    0.2740    3.4420 h1        1 MOL      0.124958
     47 H19         4.8440   -1.1490    2.5640 h1        1 MOL      0.124958
     48 N5          3.4300    0.5240    1.0070 n         1 MOL     -0.702031
     49 C16         2.9340    1.2370   -0.2020 c3        1 MOL      0.478737
     50 C17         1.8010    2.2070    0.1680 c         1 MOL      0.460507
     51 O10         1.2990    2.1110    1.3100 o         1 MOL     -0.488145
     52 C18         2.4890    0.2360   -1.3270 c3        1 MOL     -0.265347
     53 C19         3.6570   -0.4330   -2.0720 c         1 MOL      0.599956
     54 N6          3.4110   -1.3620   -2.9220 n         1 MOL     -0.714176
     55 O11         4.8480   -0.1020   -1.8930 o         1 MOL     -0.569843
     56 H20         2.8010   -0.0830    1.5050 hn        1 MOL      0.350527
     57 H21         3.7270    1.8200   -0.6710 h1        1 MOL     -0.026487
     58 H22         1.8300    0.6910   -2.0700 hc        1 MOL      0.097845
     59 H23         1.8930   -0.5430   -0.8450 hc        1 MOL      0.097845
     60 H24         2.4390   -1.5770   -3.1200 hn        1 MOL      0.368796
     61 H25         4.1960   -1.8750   -3.2980 hn        1 MOL      0.368796
     62 N7          1.3000    2.9740   -0.7830 n         1 MOL     -0.553292
     63 C20         0.1340    3.8700   -0.7200 c3        1 MOL      0.116004
     64 C21        -0.7790    3.9210   -1.9550 c         1 MOL      0.468209
     65 O12        -0.6560    3.1050   -2.8850 o         1 MOL     -0.531760
     66 H26         1.6470    2.8460   -1.7320 hn        1 MOL      0.266559
     67 H27         0.4400    4.8790   -0.4630 h1        1 MOL      0.088951
     68 H28        -0.5200    3.5010    0.0770 h1        1 MOL      0.088951
     69 N8         -1.6780    4.8800   -1.9650 n         1 MOL     -0.390596
     70 C22        -2.1810    5.6950   -0.8880 c3        1 MOL     -0.419302
     71 C23        -3.2980    5.1490    0.0090 c         1 MOL      0.473380
     72 O13        -3.8350    5.7120    0.9890 o         1 MOL     -0.500819
     73 C24        -2.6510    7.0530   -1.3830 c3        1 MOL      0.637703
     74 C25        -1.7410    7.9740   -2.2390 c3        1 MOL     -0.422034
     75 O14        -3.8440    6.7820   -2.0840 oh        1 MOL     -0.681626
     76 H29        -2.1390    5.0580   -2.8510 hn        1 MOL      0.277279
     77 H30        -1.3820    5.9070   -0.1730 h1        1 MOL      0.137052
     78 H31        -2.9050    7.6220   -0.4910 h1        1 MOL      0.006430
     79 H32        -3.7730    6.2910   -2.9050 ho        1 MOL      0.403397
     80 H33        -0.8060    7.9800   -1.6880 hc        1 MOL      0.093023
     81 H34        -1.5730    7.4950   -3.2090 hc        1 MOL      0.093023
     82 H35        -2.1180    8.9890   -2.3340 hc        1 MOL      0.093023
     83 N9         -3.7280    3.9080   -0.3270 n         1 MOL     -0.158971
     84 C26        -4.6690    3.0030    0.3780 c3        1 MOL      0.155728
     85 C27        -3.9040    1.7480    1.0090 c         1 MOL      0.283386
     86 O15        -2.7740    1.5050    0.5110 o         1 MOL     -0.540165
     87 C28        -5.8130    2.7320   -0.6200 c3        1 MOL      0.084904
     88 C29        -5.4600    2.1510   -2.0300 c3        1 MOL      0.004393
     89 C30        -6.5410    4.0180   -0.8270 c3        1 MOL     -0.281205
     90 C31        -4.6950    0.9000   -1.9790 c3        1 MOL     -0.028375
     91 H36        -3.2050    3.4350   -1.0500 hn        1 MOL      0.256359
     92 H37        -5.1130    3.5090    1.2340 h1        1 MOL      0.035921
     93 H38        -6.5280    2.0370   -0.1760 hc        1 MOL      0.052629
     94 H39        -4.8020    2.8740   -2.5090 hc        1 MOL     -0.020640
     95 H40        -6.4090    2.0500   -2.5600 hc        1 MOL     -0.020640
     96 H41        -6.4880    4.6590    0.0450 hc        1 MOL      0.049645
     97 H42        -6.1970    4.6010   -1.6850 hc        1 MOL      0.049645
     98 H43        -7.5960    3.7660   -0.9430 hc        1 MOL      0.049645
     99 H44        -4.6630    0.5010   -2.9890 hc        1 MOL     -0.000995
    100 H45        -3.6470    1.0570   -1.7350 hc        1 MOL     -0.000995
    101 H46        -5.0940    0.1070   -1.3500 hc        1 MOL     -0.000995
    102 N10        -4.2770    1.0530    2.0770 n         1 MOL     -0.259850
    103 C32        -5.6610    1.1280    2.5970 c3        1 MOL      0.475965
    104 C33        -6.5840    0.0390    2.0870 c         1 MOL      0.283719
    105 O16        -6.1690   -1.1030    1.9580 o         1 MOL     -0.506674
    106 C34        -5.6880    1.2150    4.0850 c3        1 MOL     -0.418242
    107 C35        -4.7340    2.1100    4.7690 c         1 MOL      0.739229
    108 O17        -4.3850    1.8060    5.9430 o         1 MOL     -0.730680
    109 O18        -4.2280    3.1110    4.2070 o         1 MOL     -0.730680
    110 H47        -3.7790    0.1980    2.2330 hn        1 MOL      0.263558
    111 H48        -6.1150    2.0760    2.3070 h1        1 MOL     -0.047732
    112 H49        -5.4630    0.2030    4.4290 hc        1 MOL      0.074323
    113 H50        -6.6660    1.5570    4.4290 hc        1 MOL      0.074323
    114 N11        -7.8070    0.3150    1.7880 n         1 MOL     -0.515652
    115 C36        -8.7940   -0.6590    1.3770 c3        1 MOL      0.488995
    116 C37        -9.8170   -0.1370    0.2900 c         1 MOL      0.051133
    117 O19       -10.1880    1.0200    0.3590 o         1 MOL     -0.468296
    118 C38        -9.4600   -1.0450    2.6720 c3        1 MOL     -0.382440
    119 C39       -10.5240   -2.0800    2.4680 ca        1 MOL      0.140043
    120 C40       -11.8220   -1.5790    2.2200 ca        1 MOL     -0.178033
    121 C41       -10.2520   -3.4510    2.5320 ca        1 MOL     -0.178033
    122 C42       -12.8710   -2.4310    2.1800 ca        1 MOL     -0.116341
    123 C43       -11.3920   -4.3280    2.3330 ca        1 MOL     -0.116341
    124 C44       -12.7060   -3.8470    2.1740 ca        1 MOL     -0.149502
    125 H51        -8.2510    1.2010    1.9560 hn        1 MOL      0.305142
    126 H52        -8.3830   -1.5610    0.9330 h1        1 MOL      0.041040
    127 H53       -10.0150   -0.1670    3.0020 hc        1 MOL      0.115595
    128 H54        -8.6900   -1.3910    3.3590 hc        1 MOL      0.115595
    129 H55       -11.9500   -0.5040    2.2350 ha        1 MOL      0.156515
    130 H56        -9.2580   -3.8620    2.6090 ha        1 MOL      0.156515
    131 H57       -13.8580   -1.9820    2.1740 ha        1 MOL      0.106210
    132 H58       -11.1900   -5.3900    2.3310 ha        1 MOL      0.106210
    133 H59       -13.5500   -4.5010    2.0410 ha        1 MOL      0.111413
    134 N12       -10.2000   -0.9330   -0.7140 n         1 MOL      0.068755
    135 C45       -10.3260   -2.3630   -0.8710 c3        1 MOL     -0.319251
    136 C46        -9.0940   -3.0950   -1.3350 c         1 MOL      0.616985
    137 O20        -9.0520   -4.3430   -1.4760 o         1 MOL     -0.559853
    138 C47       -11.5330   -2.6160   -1.7770 c3        1 MOL     -0.024505
    139 C48       -11.3020   -1.4770   -2.7820 c3        1 MOL     -0.157514
    140 C49       -10.8150   -0.3130   -1.8800 c3        1 MOL      0.033929
    141 H60       -10.6350   -2.8130    0.0800 h1        1 MOL      0.177248
    142 H61       -11.4260   -3.5270   -2.3720 hc        1 MOL      0.050141
    143 H62       -12.4960   -2.6100   -1.2750 hc        1 MOL      0.050141
    144 H63       -10.4260   -1.6580   -3.3950 hc        1 MOL      0.054112
    145 H64       -12.2170   -1.1920   -3.3020 hc        1 MOL      0.054112
    146 H65       -10.2220    0.3970   -2.4520 h1        1 MOL      0.047740
    147 H66       -11.7220    0.2540   -1.6700 h1        1 MOL      0.047740
    148 N13        -8.0090   -2.3980   -1.6600 n         1 MOL     -0.380247
    149 C50        -6.7020   -2.8720   -2.0880 c3        1 MOL      0.123090
    150 C51        -6.2140   -2.1170   -3.3120 c         1 MOL      0.409256
    151 O21        -6.6560   -0.9950   -3.5100 o         1 MOL     -0.555250
    152 C52        -5.6770   -2.8100   -0.9360 c3        1 MOL     -0.026790
    153 C53        -6.0490   -3.7390    0.2260 c3        1 MOL     -0.097477
    154 C54        -5.7470   -5.2620   -0.0810 c         1 MOL      0.581775
    155 O22        -4.7030   -5.5770   -0.7250 o         1 MOL     -0.687850
    156 O23        -6.5230   -6.0730    0.5990 o         1 MOL     -0.687850
    157 H67        -8.1960   -1.4650   -2.0070 hn        1 MOL      0.242711
    158 H68        -6.7740   -3.9240   -2.3570 h1        1 MOL      0.076807
    159 H69        -5.5520   -1.7770   -0.6090 hc        1 MOL      0.020387
    160 H70        -4.6820   -3.0870   -1.2620 hc        1 MOL      0.020387
    161 H71        -7.0550   -3.5100    0.5950 hc        1 MOL      0.043441
    162 H72        -5.4260   -3.5100    1.1040 hc        1 MOL      0.043441
    163 N14        -5.2640   -2.6240   -4.1410 n         1 MOL     -0.392869
    164 C55        -4.4450   -3.8740   -4.0930 c3        1 MOL      0.003279
    165 H73        -3.4290   -3.6550   -4.4220 h1        1 MOL      0.043232
    166 H74        -4.4220   -4.2550   -3.0730 h1        1 MOL      0.043232
    167 H75        -4.8860   -4.6220   -4.7520 h1        1 MOL      0.043232
    168 H76        -5.0520   -1.9870   -4.8980 hn        1 MOL      0.269042
    169 Ca1         7.2820    0.6550   -0.9520 Ca        1 MOL      1.645184
    170 O24         7.3430    0.2080   -3.6150 oh        1 MOL     -0.814855
    171 H77         7.1160   -0.7270   -3.6620 ho        1 MOL      0.403523
    172 H78         7.5260    0.4480   -4.5200 ho        1 MOL      0.403523
    173 O25         6.4480    2.9110   -2.0820 oh        1 MOL     -0.814855
    174 H79         6.5220    2.9420   -3.0400 ho        1 MOL      0.403523
    175 H80         6.4690    3.8300   -1.8080 ho        1 MOL      0.403523
    176 O26         9.4540    1.7840   -2.1360 oh        1 MOL     -0.814855
    177 H81         9.5650    1.6120   -3.0710 ho        1 MOL      0.403523
    178 H82        10.1840    2.3550   -1.9020 ho        1 MOL      0.403523
@<TRIPOS>BOND
     1    1    2 1   
     2    1    4 1   
     3    1    5 1   
     4    1    6 1   
     5    2    3 2   
     6    2    7 1   
     7    7    8 1   
     8    7   15 1   
     9    8    9 1   
    10    8   11 1   
    11    8   16 1   
    12    9   10 2   
    13    9   19 1   
    14   11   12 1   
    15   11   17 1   
    16   11   18 1   
    17   12   13 1   
    18   12   14 1   
    19   19   20 1   
    20   19   24 1   
    21   20   21 1   
    22   20   23 1   
    23   20   25 1   
    24   21   22 2   
    25   21   29 1   
    26   23   26 1   
    27   23   27 1   
    28   23   28 1   
    29   29   30 1   
    30   29   37 1   
    31   30   31 1   
    32   30   33 1   
    33   30   38 1   
    34   31   32 2   
    35   31   41 1   
    36   33   34 1   
    37   33   39 1   
    38   33   40 1   
    39   34   35 1   
    40   34   36 1   
    41   41   42 1   
    42   41   45 1   
    43   42   43 1   
    44   42   46 1   
    45   42   47 1   
    46   43   44 2   
    47   43   48 1   
    48   48   49 1   
    49   48   56 1   
    50   49   50 1   
    51   49   52 1   
    52   49   57 1   
    53   50   51 2   
    54   50   62 1   
    55   52   53 1   
    56   52   58 1   
    57   52   59 1   
    58   53   54 1   
    59   53   55 2   
    60   54   60 1   
    61   54   61 1   
    62   62   63 1   
    63   62   66 1   
    64   63   64 1   
    65   63   67 1   
    66   63   68 1   
    67   64   65 2   
    68   64   69 1   
    69   69   70 1   
    70   69   76 1   
    71   70   71 1   
    72   70   73 1   
    73   70   77 1   
    74   71   72 2   
    75   71   83 1   
    76   73   74 1   
    77   73   75 1   
    78   73   78 1   
    79   74   80 1   
    80   74   81 1   
    81   74   82 1   
    82   75   79 1   
    83   83   84 1   
    84   83   91 1   
    85   84   85 1   
    86   84   87 1   
    87   84   92 1   
    88   85   86 2   
    89   85  102 1   
    90   87   88 1   
    91   87   89 1   
    92   87   93 1   
    93   88   90 1   
    94   88   94 1   
    95   88   95 1   
    96   89   96 1   
    97   89   97 1   
    98   89   98 1   
    99   90   99 1   
   100   90  100 1   
   101   90  101 1   
   102  102  103 1   
   103  102  110 1   
   104  103  104 1   
   105  103  106 1   
   106  103  111 1   
   107  104  105 2   
   108  104  114 1   
   109  106  107 1   
   110  106  112 1   
   111  106  113 1   
   112  107  108 1   
   113  107  109 1   
   114  114  115 1   
   115  114  125 1   
   116  115  116 1   
   117  115  118 1   
   118  115  126 1   
   119  116  117 2   
   120  116  134 1   
   121  118  119 1   
   122  118  127 1   
   123  118  128 1   
   124  119  120 ar  
   125  119  121 ar  
   126  120  122 ar  
   127  120  129 1   
   128  121  123 ar  
   129  121  130 1   
   130  122  124 ar  
   131  122  131 1   
   132  123  124 ar  
   133  123  132 1   
   134  124  133 1   
   135  134  135 1   
   136  134  140 1   
   137  135  136 1   
   138  135  138 1   
   139  135  141 1   
   140  136  137 2   
   141  136  148 1   
   142  138  139 1   
   143  138  142 1   
   144  138  143 1   
   145  139  140 1   
   146  139  144 1   
   147  139  145 1   
   148  140  146 1   
   149  140  147 1   
   150  148  149 1   
   151  148  157 1   
   152  149  150 1   
   153  149  152 1   
   154  149  158 1   
   155  150  151 2   
   156  150  163 1   
   157  152  153 1   
   158  152  159 1   
   159  152  160 1   
   160  153  154 1   
   161  153  161 1   
   162  153  162 1   
   163  154  155 1   
   164  154  156 1   
   165  163  164 1   
   166  163  168 1   
   167  164  165 1   
   168  164  166 1   
   169  164  167 1   
   170  170  171 1   
   171  170  172 1   
   172  173  174 1   
   173  173  175 1   
   174  176  177 1   
   175  176  178 1   
@<TRIPOS>SUBSTRUCTURE
     1 MOL         1 TEMP              0 ****  ****    0 ROOT
