@<TRIPOS>MOLECULE
MOL
  178   175     1     0     0
SMALL
resp


@<TRIPOS>ATOM
      1 C1          5.5230   -2.0290    3.4680 c3        1 MOL     -0.299818
      2 C2          6.6530   -1.0300    3.0720 c         1 MOL      0.725132
      3 O1          6.3630    0.0400    2.6280 o         1 MOL     -0.559701
      4 H1          5.9510   -3.0200    3.6150 hc        1 MOL      0.067070
      5 H2          5.0520   -1.6960    4.3930 hc        1 MOL      0.067070
      6 H3          4.7780   -2.0680    2.6740 hc        1 MOL      0.067070
      7 N1          7.9120   -1.5430    3.1750 n         1 MOL     -0.753736
      8 C3          9.1620   -0.9340    2.6970 c3        1 MOL      0.459668
      9 C4          9.1720   -0.7890    1.1840 c         1 MOL      0.603228
     10 O2          9.1990   -1.7840    0.4600 o         1 MOL     -0.587995
     11 C5         10.3380   -1.7000    3.2470 c3        1 MOL     -0.407770
     12 C6         11.6790   -1.0490    2.8580 c         1 MOL      0.822257
     13 O3         12.7400   -1.6250    3.1660 o         1 MOL     -0.755580
     14 O4         11.7230    0.0740    2.3230 o         1 MOL     -0.755580
     15 H4          7.9990   -2.4890    3.5370 hn        1 MOL      0.332227
     16 H5          9.2670    0.0400    3.1640 h1        1 MOL     -0.024367
     17 H6         10.2890   -2.6600    2.7390 hc        1 MOL      0.045938
     18 H7         10.2530   -1.6700    4.3300 hc        1 MOL      0.045938
     19 N2          9.0990    0.4580    0.6530 n         1 MOL     -0.489100
     20 C7          8.5680    0.7220   -0.7240 c3        1 MOL      0.289794
     21 C8          7.0290    0.7280   -0.7790 c         1 MOL      0.677004
     22 O5          6.3700    1.2850    0.0850 o         1 MOL     -0.536328
     23 C9          9.2290    2.0280   -1.1030 c3        1 MOL     -0.396619
     24 H8          9.0580    1.3010    1.2270 hn        1 MOL      0.232499
     25 H9          8.9210   -0.1290   -1.3080 h1        1 MOL      0.005744
     26 H10         9.1710    2.7140   -0.2650 hc        1 MOL      0.092494
     27 H11        10.2540    1.8980   -1.4660 hc        1 MOL      0.092494
     28 H12         8.6590    2.5330   -1.8880 hc        1 MOL      0.092494
     29 N3          6.5700    0.1720   -1.8470 n         1 MOL     -0.924300
     30 C10         5.2390   -0.4050   -1.8010 c3        1 MOL      0.422151
     31 C11         4.5000    0.0020   -3.0960 c         1 MOL      0.471106
     32 O6          3.7640   -0.7680   -3.7050 o         1 MOL     -0.525453
     33 C12         5.3440   -1.9110   -1.7330 c3        1 MOL      0.148240
     34 C13         4.0440   -2.6460   -1.5580 c         1 MOL      0.592919
     35 O7          3.8690   -3.7290   -2.1260 o         1 MOL     -0.743826
     36 O8          3.1450   -2.1320   -0.8440 o         1 MOL     -0.743826
     37 H13         7.2660   -0.1170   -2.5180 hn        1 MOL      0.369323
     38 H14         4.6250   -0.0190   -0.9820 h1        1 MOL      0.020683
     39 H15         6.0160   -2.1270   -0.9010 hc        1 MOL     -0.052108
     40 H16         5.8430   -2.2810   -2.6280 hc        1 MOL     -0.052108
     41 N4          4.5750    1.2660   -3.5070 n         1 MOL     -0.363162
     42 C14         3.8530    1.7810   -4.7480 c3        1 MOL     -0.182495
     43 C15         2.2970    1.8360   -4.6060 c         1 MOL      0.457449
     44 O9          1.6700    1.6640   -5.6570 o         1 MOL     -0.507052
     45 H17         5.0910    1.9370   -2.9570 hn        1 MOL      0.282269
     46 H18         4.0920    1.1500   -5.6020 h1        1 MOL      0.114249
     47 H19         4.2780    2.7630   -4.9170 h1        1 MOL      0.114249
     48 N5          1.7050    2.2920   -3.5110 n         1 MOL     -0.288771
     49 C16         0.4310    2.9840   -3.4460 c3        1 MOL     -0.010916
     50 C17         0.6340    4.2710   -2.7050 c         1 MOL      0.549314
     51 O10         1.1980    4.2630   -1.6400 o         1 MOL     -0.485114
     52 C18        -0.6200    2.1510   -2.7800 c3        1 MOL     -0.296425
     53 C19        -1.2550    1.0250   -3.5680 c         1 MOL      0.651502
     54 N6         -0.9150   -0.2440   -3.4370 n         1 MOL     -0.569317
     55 O11        -1.9590    1.2450   -4.5260 o         1 MOL     -0.606066
     56 H20         2.2870    2.5500   -2.7340 hn        1 MOL      0.213862
     57 H21         0.1210    3.2640   -4.4600 h1        1 MOL      0.077702
     58 H22        -1.4850    2.7540   -2.4900 hc        1 MOL      0.103727
     59 H23        -0.1950    1.8550   -1.8160 hc        1 MOL      0.103727
     60 H24        -0.3660   -0.5600   -2.6470 hn        1 MOL      0.284923
     61 H25        -1.4350   -0.8510   -4.0550 hn        1 MOL      0.284923
     62 N7          0.1200    5.3880   -3.2080 n         1 MOL     -0.432174
     63 C20        -0.1930    6.5110   -2.3670 c3        1 MOL     -0.157641
     64 C21        -1.3910    6.3250   -1.3870 c         1 MOL      0.675793
     65 O12        -2.3860    5.7930   -1.7580 o         1 MOL     -0.512142
     66 H26        -0.2010    5.4340   -4.1630 hn        1 MOL      0.303103
     67 H27        -0.3380    7.3940   -2.9950 h1        1 MOL      0.092385
     68 H28         0.7450    6.8030   -1.8840 h1        1 MOL      0.092385
     69 N8         -1.2950    6.9030   -0.1880 n         1 MOL     -0.594880
     70 C22        -2.4880    7.0120    0.7600 c3        1 MOL     -0.143135
     71 C23        -2.7780    5.7480    1.6000 c         1 MOL      0.597826
     72 O13        -3.8170    5.6490    2.1900 o         1 MOL     -0.565871
     73 C24        -2.3700    8.1250    1.7080 c3        1 MOL      0.541517
     74 C25        -1.3960    8.0220    2.9250 c3        1 MOL     -0.325967
     75 O14        -2.1170    9.3210    1.0110 oh        1 MOL     -0.643119
     76 H29        -0.4100    7.2810    0.1030 hn        1 MOL      0.296803
     77 H30        -3.3400    7.1190    0.0940 h1        1 MOL      0.135624
     78 H31        -3.3730    8.2290    2.1360 h1        1 MOL     -0.005098
     79 H32        -1.1910    9.2630    0.7860 ho        1 MOL      0.365208
     80 H33        -1.2690    8.9970    3.3980 hc        1 MOL      0.073297
     81 H34        -1.8140    7.2610    3.5970 hc        1 MOL      0.073297
     82 H35        -0.4890    7.5550    2.5310 hc        1 MOL      0.073297
     83 N9         -1.8300    4.7710    1.6910 n         1 MOL     -0.398745
     84 C26        -1.8740    3.4260    2.3610 c3        1 MOL     -0.210202
     85 C27        -1.4850    2.3070    1.3490 c         1 MOL      0.795407
     86 O15        -0.5340    2.5490    0.6390 o         1 MOL     -0.523833
     87 C28        -1.1160    3.4220    3.7520 c3        1 MOL      0.130605
     88 C29        -1.7370    4.3120    4.9220 c3        1 MOL      0.012282
     89 C30        -1.0320    2.0220    4.3830 c3        1 MOL     -0.322746
     90 C31        -0.6720    4.5900    6.0460 c3        1 MOL     -0.167654
     91 H36        -1.0480    4.7450    1.0490 hn        1 MOL      0.256367
     92 H37        -2.9290    3.3050    2.6240 h1        1 MOL      0.089411
     93 H38        -0.1580    3.8720    3.5270 hc        1 MOL      0.033678
     94 H39        -2.6490    3.9150    5.3700 hc        1 MOL      0.017263
     95 H40        -2.1060    5.2710    4.5560 hc        1 MOL      0.017263
     96 H41        -1.9610    1.5050    4.1650 hc        1 MOL      0.094784
     97 H42        -0.2250    1.5650    3.8020 hc        1 MOL      0.094784
     98 H43        -0.8270    1.8530    5.4400 hc        1 MOL      0.094784
     99 H44         0.1300    5.2400    5.7040 hc        1 MOL      0.041599
    100 H45        -1.2390    5.1160    6.8150 hc        1 MOL      0.041599
    101 H46        -0.3160    3.6540    6.4780 hc        1 MOL      0.041599
    102 N10        -2.2240    1.2100    1.2890 n         1 MOL     -0.754340
    103 C32        -1.8890    0.0890    0.4540 c3        1 MOL      0.623700
    104 C33        -3.1220   -0.5020   -0.2220 c         1 MOL      0.251373
    105 O16        -3.1930   -1.6510   -0.5890 o         1 MOL     -0.450061
    106 C34        -1.0380   -0.8750    1.1410 c3        1 MOL     -0.155568
    107 C35        -0.2730   -1.8130    0.2110 c         1 MOL      0.733113
    108 O17         0.1200   -2.9100    0.6570 o         1 MOL     -0.686861
    109 O18         0.0580   -1.4460   -0.9580 o         1 MOL     -0.686861
    110 H47        -3.0340    1.1470    1.9010 hn        1 MOL      0.312269
    111 H48        -1.2590    0.4310   -0.3640 h1        1 MOL     -0.124350
    112 H49        -1.6320   -1.5550    1.7580 hc        1 MOL      0.001493
    113 H50        -0.3980   -0.2670    1.7810 hc        1 MOL      0.001493
    114 N11        -4.1410    0.3000   -0.4000 n         1 MOL     -0.308760
    115 C36        -5.5440   -0.0830   -0.4580 c3        1 MOL      0.160250
    116 C37        -5.9430   -1.3190    0.3680 c         1 MOL      0.308751
    117 O19        -5.9590   -1.2540    1.5880 o         1 MOL     -0.532933
    118 C38        -6.4340    1.0830   -0.1310 c3        1 MOL     -0.339541
    119 C39        -7.9230    0.7810   -0.3570 ca        1 MOL      0.125871
    120 C40        -8.4790    0.8750   -1.6510 ca        1 MOL     -0.153374
    121 C41        -8.7340    0.3800    0.6900 ca        1 MOL     -0.153374
    122 C42        -9.7780    0.4560   -1.9060 ca        1 MOL     -0.116378
    123 C43       -10.0250   -0.1090    0.4530 ca        1 MOL     -0.116378
    124 C44       -10.5170   -0.1440   -0.8270 ca        1 MOL     -0.129592
    125 H51        -3.9030    1.2830   -0.3430 hn        1 MOL      0.230002
    126 H52        -5.6610   -0.2920   -1.5230 h1        1 MOL      0.026416
    127 H53        -6.2060    1.9390   -0.7690 hc        1 MOL      0.122020
    128 H54        -6.3290    1.4180    0.9030 hc        1 MOL      0.122020
    129 H55        -7.9160    1.2950   -2.4720 ha        1 MOL      0.121385
    130 H56        -8.2870    0.3320    1.6790 ha        1 MOL      0.121385
    131 H57       -10.2010    0.5810   -2.8950 ha        1 MOL      0.112010
    132 H58       -10.5880   -0.4940    1.2880 ha        1 MOL      0.112010
    133 H59       -11.3950   -0.7220   -1.0710 ha        1 MOL      0.104227
    134 N12        -6.4510   -2.4000   -0.2370 n         1 MOL      0.188881
    135 C45        -7.1280   -3.4600    0.5490 c3        1 MOL      0.070822
    136 C46        -6.3090   -4.2260    1.6280 c         1 MOL      0.254830
    137 O20        -6.7970   -4.8890    2.5140 o         1 MOL     -0.505503
    138 C47        -7.6780   -4.4020   -0.5860 c3        1 MOL     -0.175453
    139 C48        -6.6670   -4.2050   -1.7030 c3        1 MOL      0.094584
    140 C49        -6.6270   -2.6880   -1.6180 c3        1 MOL     -0.301378
    141 H60        -7.9920   -3.0690    1.0770 h1        1 MOL      0.038060
    142 H61        -7.6290   -5.4650   -0.3570 hc        1 MOL      0.059547
    143 H62        -8.6720   -4.1280   -0.9140 hc        1 MOL      0.059547
    144 H63        -5.7140   -4.6280   -1.3850 hc        1 MOL      0.013782
    145 H64        -6.9480   -4.5840   -2.6900 hc        1 MOL      0.013782
    146 H65        -5.7620   -2.3230   -2.1660 h1        1 MOL      0.088484
    147 H66        -7.5450   -2.1700   -1.9170 h1        1 MOL      0.088484
    148 N13        -4.9910   -4.1040    1.4360 n         1 MOL      0.002024
    149 C50        -3.8640   -4.8470    2.0840 c3        1 MOL     -0.480254
    150 C51        -3.5200   -4.4300    3.4500 c         1 MOL      0.601472
    151 O21        -2.8030   -5.1760    4.1060 o         1 MOL     -0.527398
    152 C52        -2.6880   -4.6870    1.0720 c3        1 MOL      0.188221
    153 C53        -2.8280   -5.3270   -0.3050 c3        1 MOL     -0.252803
    154 C54        -1.4620   -5.2080   -1.1300 c         1 MOL      0.697447
    155 O22        -0.4580   -5.8010   -0.8130 o         1 MOL     -0.730180
    156 O23        -1.3630   -4.2880   -1.9970 o         1 MOL     -0.730180
    157 H67        -4.8270   -3.5800    0.6000 hn        1 MOL      0.188040
    158 H68        -4.2580   -5.8690    2.1220 h1        1 MOL      0.191076
    159 H69        -1.8390   -5.2280    1.4950 hc        1 MOL      0.046100
    160 H70        -2.3860   -3.6450    0.9000 hc        1 MOL      0.046100
    161 H71        -3.6120   -4.7830   -0.8390 hc        1 MOL      0.030575
    162 H72        -2.9900   -6.4060   -0.2770 hc        1 MOL      0.030575
    163 N14        -3.8840   -3.1550    3.8620 n         1 MOL     -0.253151
    164 C55        -3.4220   -2.6260    5.1390 c3        1 MOL     -0.318319
    165 H73        -3.4030   -1.5370    5.0950 h1        1 MOL      0.116891
    166 H74        -4.0990   -2.9450    5.9320 h1        1 MOL      0.116891
    167 H75        -2.4180   -2.9980    5.3460 h1        1 MOL      0.116891
    168 H76        -4.3370   -2.5510    3.1930 hn        1 MOL      0.229722
    169 Ca1         1.1180   -3.7990   -1.4720 Ca        1 MOL      1.636671
    170 O24         1.3740   -2.4030   -3.7170 oh        1 MOL     -0.767115
    171 H77         0.8240   -2.1820   -4.4650 ho        1 MOL      0.390565
    172 H78         1.9790   -1.6630   -3.6350 ho        1 MOL      0.390565
    173 O25         1.7220   -5.9730   -2.9750 oh        1 MOL     -0.767115
    174 H79         2.4610   -6.4540   -2.6160 ho        1 MOL      0.390565
    175 H80         1.8850   -5.9500   -3.9210 ho        1 MOL      0.390565
    176 O26         2.6450   -5.2210    0.4630 oh        1 MOL     -0.767115
    177 H81         3.5150   -5.4500    0.1440 ho        1 MOL      0.390565
    178 H82         2.7220   -5.2480    1.4110 ho        1 MOL      0.390565
@<TRIPOS>BOND
     1    1    2 1   
     2    1    4 1   
     3    1    5 1   
     4    1    6 1   
     5    2    3 2   
     6    2    7 1   
     7    7    8 1   
     8    7   15 1   
     9    8    9 1   
    10    8   11 1   
    11    8   16 1   
    12    9   10 2   
    13    9   19 1   
    14   11   12 1   
    15   11   17 1   
    16   11   18 1   
    17   12   13 1   
    18   12   14 1   
    19   19   20 1   
    20   19   24 1   
    21   20   21 1   
    22   20   23 1   
    23   20   25 1   
    24   21   22 2   
    25   21   29 1   
    26   23   26 1   
    27   23   27 1   
    28   23   28 1   
    29   29   30 1   
    30   29   37 1   
    31   30   31 1   
    32   30   33 1   
    33   30   38 1   
    34   31   32 2   
    35   31   41 1   
    36   33   34 1   
    37   33   39 1   
    38   33   40 1   
    39   34   35 1   
    40   34   36 1   
    41   41   42 1   
    42   41   45 1   
    43   42   43 1   
    44   42   46 1   
    45   42   47 1   
    46   43   44 2   
    47   43   48 1   
    48   48   49 1   
    49   48   56 1   
    50   49   50 1   
    51   49   52 1   
    52   49   57 1   
    53   50   51 2   
    54   50   62 1   
    55   52   53 1   
    56   52   58 1   
    57   52   59 1   
    58   53   54 1   
    59   53   55 2   
    60   54   60 1   
    61   54   61 1   
    62   62   63 1   
    63   62   66 1   
    64   63   64 1   
    65   63   67 1   
    66   63   68 1   
    67   64   65 2   
    68   64   69 1   
    69   69   70 1   
    70   69   76 1   
    71   70   71 1   
    72   70   73 1   
    73   70   77 1   
    74   71   72 2   
    75   71   83 1   
    76   73   74 1   
    77   73   75 1   
    78   73   78 1   
    79   74   80 1   
    80   74   81 1   
    81   74   82 1   
    82   75   79 1   
    83   83   84 1   
    84   83   91 1   
    85   84   85 1   
    86   84   87 1   
    87   84   92 1   
    88   85   86 2   
    89   85  102 1   
    90   87   88 1   
    91   87   89 1   
    92   87   93 1   
    93   88   90 1   
    94   88   94 1   
    95   88   95 1   
    96   89   96 1   
    97   89   97 1   
    98   89   98 1   
    99   90   99 1   
   100   90  100 1   
   101   90  101 1   
   102  102  103 1   
   103  102  110 1   
   104  103  104 1   
   105  103  106 1   
   106  103  111 1   
   107  104  105 2   
   108  104  114 1   
   109  106  107 1   
   110  106  112 1   
   111  106  113 1   
   112  107  108 1   
   113  107  109 1   
   114  114  115 1   
   115  114  125 1   
   116  115  116 1   
   117  115  118 1   
   118  115  126 1   
   119  116  117 2   
   120  116  134 1   
   121  118  119 1   
   122  118  127 1   
   123  118  128 1   
   124  119  120 ar  
   125  119  121 ar  
   126  120  122 ar  
   127  120  129 1   
   128  121  123 ar  
   129  121  130 1   
   130  122  124 ar  
   131  122  131 1   
   132  123  124 ar  
   133  123  132 1   
   134  124  133 1   
   135  134  135 1   
   136  134  140 1   
   137  135  136 1   
   138  135  138 1   
   139  135  141 1   
   140  136  137 2   
   141  136  148 1   
   142  138  139 1   
   143  138  142 1   
   144  138  143 1   
   145  139  140 1   
   146  139  144 1   
   147  139  145 1   
   148  140  146 1   
   149  140  147 1   
   150  148  149 1   
   151  148  157 1   
   152  149  150 1   
   153  149  152 1   
   154  149  158 1   
   155  150  151 2   
   156  150  163 1   
   157  152  153 1   
   158  152  159 1   
   159  152  160 1   
   160  153  154 1   
   161  153  161 1   
   162  153  162 1   
   163  154  155 1   
   164  154  156 1   
   165  163  164 1   
   166  163  168 1   
   167  164  165 1   
   168  164  166 1   
   169  164  167 1   
   170  170  171 1   
   171  170  172 1   
   172  173  174 1   
   173  173  175 1   
   174  176  177 1   
   175  176  178 1   
@<TRIPOS>SUBSTRUCTURE
     1 MOL         1 TEMP              0 ****  ****    0 ROOT
