@<TRIPOS>MOLECULE
MOL
  189   185     1     0     0
SMALL
resp


@<TRIPOS>ATOM
      1 C1         -4.1560   -4.2660   -4.0790 c3        1 MOL     -0.391031
      2 C2         -4.7400   -3.6850   -2.7520 c         1 MOL      0.918499
      3 O1         -4.0730   -3.5570   -1.7750 o         1 MOL     -0.663330
      4 H1         -4.6450   -5.2130   -4.3060 hc        1 MOL      0.087041
      5 H2         -4.3320   -3.5630   -4.8920 hc        1 MOL      0.087041
      6 H3         -3.0850   -4.4290   -3.9640 hc        1 MOL      0.087041
      7 N1         -6.0900   -3.4220   -2.7940 n         1 MOL     -0.806107
      8 C3         -6.8320   -2.6290   -1.8120 c3        1 MOL      0.333225
      9 C4         -6.1870   -1.2760   -1.4520 c         1 MOL      0.338923
     10 O2         -5.7240   -1.0370   -0.3200 o         1 MOL     -0.537982
     11 C5         -7.4860   -3.2860   -0.6040 c3        1 MOL     -0.189404
     12 C6         -6.6480   -4.4540   -0.0540 c         1 MOL      0.758858
     13 O3         -5.5840   -4.2150    0.4990 o         1 MOL     -0.742980
     14 O4         -7.1560   -5.5850   -0.1160 o         1 MOL     -0.742980
     15 H4         -6.5700   -3.7560   -3.6160 hn        1 MOL      0.337436
     16 H5         -7.7120   -2.2490   -2.3400 h1        1 MOL      0.035191
     17 H6         -8.5030   -3.5680   -0.8730 hc        1 MOL      0.038527
     18 H7         -7.6230   -2.5330    0.1620 hc        1 MOL      0.038527
     19 N2         -6.0590   -0.5050   -2.5020 n         1 MOL     -0.439261
     20 C7         -5.4910    0.8400   -2.6310 c3        1 MOL      0.174543
     21 C8         -6.1320    1.9970   -1.8270 c         1 MOL      0.267355
     22 O5         -6.4800    3.0200   -2.5200 o         1 MOL     -0.561373
     23 C9         -3.9260    0.8380   -2.4640 c3        1 MOL      0.341888
     24 C10        -3.2240    2.1980   -2.6520 c3        1 MOL     -0.288087
     25 C11        -3.2100   -0.2740   -3.2050 c3        1 MOL     -0.135282
     26 C12        -3.3240    2.5400   -4.1590 c3        1 MOL     -0.075401
     27 H8         -6.2920   -0.9660   -3.3680 hn        1 MOL      0.243542
     28 H9         -5.6980    1.2030   -3.6390 h1        1 MOL      0.035871
     29 H10        -3.7640    0.5940   -1.4130 hc        1 MOL     -0.150589
     30 H11        -2.1740    2.0320   -2.4310 hc        1 MOL      0.147802
     31 H12        -3.6030    3.0070   -2.0200 hc        1 MOL      0.147802
     32 H13        -3.5010   -1.2700   -2.8620 hc        1 MOL      0.002180
     33 H14        -3.6210   -0.2540   -4.2200 hc        1 MOL      0.002180
     34 H15        -2.1350   -0.0910   -3.2040 hc        1 MOL      0.002180
     35 H16        -4.3660    2.6360   -4.4500 hc        1 MOL     -0.003558
     36 H17        -2.7230    3.4370   -4.3350 hc        1 MOL     -0.003558
     37 H18        -2.9620    1.7150   -4.7720 hc        1 MOL     -0.003558
     38 N3         -6.4510    1.7860   -0.5350 n         1 MOL     -0.021338
     39 C13        -7.3540    2.6020    0.2880 c3        1 MOL      0.008163
     40 C14        -6.7900    4.0070    0.7740 c         1 MOL      0.459996
     41 O6         -7.5240    4.9920    0.8220 o         1 MOL     -0.596860
     42 C15        -7.9030    1.7910    1.5080 c3        1 MOL     -0.154733
     43 C16        -8.6690    0.4470    1.2400 c         1 MOL      0.752079
     44 O7         -8.8750    0.0990    0.0770 o         1 MOL     -0.731502
     45 O8         -9.0870   -0.1400    2.2710 o         1 MOL     -0.731502
     46 H19        -6.2260    0.8500   -0.2360 hn        1 MOL      0.205930
     47 H20        -8.2180    2.7420   -0.3600 h1        1 MOL      0.061859
     48 H21        -8.6140    2.3820    2.0820 hc        1 MOL      0.026818
     49 H22        -7.0380    1.6250    2.1440 hc        1 MOL      0.026818
     50 N4         -5.5650    4.2240    1.1390 n         1 MOL     -0.325985
     51 C17        -4.4640    3.2060    1.2710 c3        1 MOL     -0.227710
     52 C18        -3.1720    3.8360    1.8090 c         1 MOL      0.759578
     53 O9         -2.9510    4.9570    1.4750 o         1 MOL     -0.593181
     54 H23        -5.2040    5.1580    1.2710 hn        1 MOL      0.254476
     55 H24        -4.1110    2.7680    0.3270 h1        1 MOL      0.097965
     56 H25        -4.8900    2.4640    1.9430 h1        1 MOL      0.097965
     57 N5         -2.3080    3.1830    2.6120 n         1 MOL     -0.858196
     58 C19        -2.2200    1.7450    3.0280 c3        1 MOL      0.521711
     59 C20        -2.1950    0.7330    1.8900 c         1 MOL      0.365182
     60 O10        -3.1170   -0.0520    1.6350 o         1 MOL     -0.641962
     61 C21        -3.2050    1.4230    4.1490 c3        1 MOL     -0.505602
     62 C22        -2.9070    0.0620    4.6900 c         1 MOL      0.759817
     63 O11        -1.8360   -0.5420    4.4280 o         1 MOL     -0.686499
     64 O12        -3.7720   -0.4170    5.4320 o         1 MOL     -0.686499
     65 H26        -1.4940    3.7080    2.8740 hn        1 MOL      0.419840
     66 H27        -1.2050    1.6340    3.4250 h1        1 MOL     -0.005180
     67 H28        -4.2120    1.4200    3.7330 hc        1 MOL      0.123222
     68 H29        -3.0870    2.2160    4.8770 hc        1 MOL      0.123222
     69 N6         -1.1850    0.6260    1.0190 n         1 MOL     -0.133229
     70 C23         0.2120    1.2630    1.1560 c3        1 MOL     -0.210228
     71 C24         0.3020    2.5860    0.4470 c         1 MOL      0.678275
     72 O13        -0.4660    2.9040   -0.4660 o         1 MOL     -0.571014
     73 H30        -1.3300    0.1080    0.1700 hn        1 MOL      0.200530
     74 H31         0.9360    0.5760    0.7170 h1        1 MOL      0.082111
     75 H32         0.3590    1.3400    2.2280 h1        1 MOL      0.082111
     76 N7          1.3100    3.4080    0.7670 n         1 MOL     -0.533081
     77 C25         1.5090    4.6750    0.1800 c3        1 MOL      0.172043
     78 C26         2.0760    4.6370   -1.2470 c         1 MOL      0.296075
     79 O14         2.1490    5.7070   -1.8510 o         1 MOL     -0.507778
     80 C27         2.2960    5.7020    1.0080 c3        1 MOL      0.064468
     81 C28         2.1430    5.5020    2.5210 c3        1 MOL     -0.191261
     82 C29         0.6990    5.5780    3.0180 c         1 MOL      0.682041
     83 N8          0.0080    6.6900    3.0960 n         1 MOL     -0.850525
     84 O15         0.1590    4.5180    3.2550 o         1 MOL     -0.574906
     85 H33         1.8450    3.2230    1.6000 hn        1 MOL      0.269140
     86 H34         0.5330    5.1700    0.2190 h1        1 MOL      0.102630
     87 H35         2.0500    6.7350    0.7690 hc        1 MOL     -0.010128
     88 H36         3.3300    5.4610    0.7740 hc        1 MOL     -0.010128
     89 H37         2.6950    6.2760    3.0600 hc        1 MOL      0.053522
     90 H38         2.5580    4.5690    2.9000 hc        1 MOL      0.053522
     91 H39         0.2840    7.5190    2.5850 hn        1 MOL      0.396202
     92 H40        -0.8800    6.6140    3.5780 hn        1 MOL      0.396202
     93 N9          2.5350    3.4840   -1.7890 n         1 MOL     -0.161274
     94 C30         3.0600    3.3730   -3.1940 c3        1 MOL     -0.207629
     95 C31         4.5780    3.0430   -3.3220 c         1 MOL      0.450490
     96 O16         5.1330    2.9510   -4.4440 o         1 MOL     -0.529807
     97 C32         2.2150    2.3840   -4.1520 c3        1 MOL      0.308609
     98 C33         0.7670    2.8560   -4.1840 c3        1 MOL     -0.261852
     99 C34         2.3160    1.0270   -3.5630 c3        1 MOL     -0.261852
    100 H41         2.5170    2.6180   -1.2610 hn        1 MOL      0.180462
    101 H42         2.9120    4.3280   -3.6900 h1        1 MOL      0.134176
    102 H43         2.7130    2.4680   -5.1140 hc        1 MOL     -0.024356
    103 H44         0.8130    3.9000   -4.5160 hc        1 MOL      0.062486
    104 H45         0.2770    2.2990   -4.9900 hc        1 MOL      0.062486
    105 H46         0.2610    2.8570   -3.2230 hc        1 MOL      0.062486
    106 H47         3.3770    0.8090   -3.4510 hc        1 MOL      0.062486
    107 H48         1.9360    1.0600   -2.5390 hc        1 MOL      0.062486
    108 H49         1.7430    0.2650   -4.0940 hc        1 MOL      0.062486
    109 N10         5.2550    2.9980   -2.2100 n         1 MOL     -0.306386
    110 C35         6.6930    2.8740   -2.0910 c3        1 MOL      0.226283
    111 C36         7.1760    1.4970   -1.6230 c         1 MOL      0.483919
    112 O17         8.3490    1.2250   -1.8990 o         1 MOL     -0.559769
    113 C37         7.0810    4.0220   -1.1290 c3        1 MOL     -0.401277
    114 C38         8.5890    4.2390   -0.9380 c         1 MOL      0.749074
    115 N11         9.3360    4.4630   -2.0100 n         1 MOL     -0.858102
    116 O18         9.1070    4.2980    0.1870 o         1 MOL     -0.574718
    117 H50         4.7580    3.1290   -1.3360 hn        1 MOL      0.239605
    118 H51         7.1190    3.0840   -3.0670 h1        1 MOL      0.017631
    119 H52         6.6460    3.9490   -0.1330 hc        1 MOL      0.115517
    120 H53         6.6800    4.9300   -1.5750 hc        1 MOL      0.115517
    121 H54         8.9420    4.3000   -2.9190 hn        1 MOL      0.379529
    122 H55        10.3430    4.4690   -1.9420 hn        1 MOL      0.379529
    123 N12         6.3640    0.7090   -0.9120 n         1 MOL     -0.438665
    124 C39         6.7110   -0.5860   -0.2490 c3        1 MOL      0.383231
    125 C40         5.4920   -1.5590   -0.1440 c         1 MOL      0.265404
    126 O19         4.3880   -1.1370   -0.3030 o         1 MOL     -0.429447
    127 C41         7.3340   -0.3050    1.1560 c3        1 MOL     -0.532388
    128 C42         7.8990   -1.5140    1.9390 ca        1 MOL      0.266697
    129 C43         9.1130   -2.0180    1.5820 ca        1 MOL     -0.216820
    130 C44         7.2890   -2.0880    3.0670 ca        1 MOL     -0.216820
    131 C45         9.7370   -3.0810    2.2780 ca        1 MOL     -0.204918
    132 C46         7.8150   -3.1840    3.7640 ca        1 MOL     -0.204918
    133 C47         9.0670   -3.7230    3.3630 ca        1 MOL      0.237329
    134 O20         9.5310   -4.8060    4.0600 oh        1 MOL     -0.427393
    135 H56         5.4660    1.1520   -0.7600 hn        1 MOL      0.209283
    136 H57         7.3520   -1.1180   -0.9500 h1        1 MOL      0.012472
    137 H58         6.5460    0.0860    1.7970 hc        1 MOL      0.174537
    138 H59         8.1190    0.4500    1.1640 hc        1 MOL      0.174537
    139 H60         9.6460   -1.5910    0.7370 ha        1 MOL      0.123839
    140 H61         6.3730   -1.6870    3.4760 ha        1 MOL      0.123839
    141 H62        10.7090   -3.4270    1.9620 ha        1 MOL      0.121825
    142 H63         7.2390   -3.7060    4.5210 ha        1 MOL      0.121825
    143 H64        10.3750   -5.1910    3.8240 ho        1 MOL      0.335087
    144 N13         5.6730   -2.8030    0.3480 n         1 MOL     -0.270330
    145 C48         4.6670   -3.8280    0.7720 c3        1 MOL      0.386930
    146 C49         3.5820   -4.2540   -0.1910 c         1 MOL      0.233891
    147 O21         3.0710   -5.3460   -0.0730 o         1 MOL     -0.477155
    148 C50         4.0780   -3.5810    2.1590 c3        1 MOL     -0.242074
    149 C51         2.9350   -2.5390    2.2910 c3        1 MOL     -0.083359
    150 C52         2.1230   -2.6530    3.4970 c         1 MOL      0.759465
    151 O22         2.6470   -2.2430    4.5760 o         1 MOL     -0.730532
    152 O23         0.9580   -2.9400    3.4270 o         1 MOL     -0.730532
    153 H65         6.6430   -3.0790    0.3180 hn        1 MOL      0.147165
    154 H66         5.2980   -4.7160    0.8660 h1        1 MOL     -0.016897
    155 H67         4.9020   -3.2640    2.7970 hc        1 MOL      0.085046
    156 H68         3.7570   -4.5540    2.5160 hc        1 MOL      0.085046
    157 H69         2.3220   -2.6060    1.3940 hc        1 MOL      0.019956
    158 H70         3.3370   -1.5250    2.3110 hc        1 MOL      0.019956
    159 N14         3.0240   -3.4460   -1.1140 n         1 MOL     -0.416959
    160 C53         1.7720   -3.7950   -1.8020 c3        1 MOL     -0.008728
    161 C54         1.9960   -4.8210   -2.9830 c         1 MOL      0.387001
    162 O24         1.0910   -5.2450   -3.7010 o         1 MOL     -0.505916
    163 C55         1.0000   -2.4890   -2.3810 c3        1 MOL     -0.184614
    164 C56         0.4990   -1.5970   -1.2530 c3        1 MOL      0.586957
    165 C57        -0.8210   -2.1390   -0.7420 c         1 MOL      0.551944
    166 O25        -0.9660   -3.2780   -0.2880 o         1 MOL     -0.665259
    167 O26        -1.8740   -1.4200   -0.8530 o         1 MOL     -0.665259
    168 H71         3.3420   -2.4900   -1.0750 hn        1 MOL      0.248953
    169 H72         1.0390   -4.3340   -1.1990 h1        1 MOL      0.178054
    170 H73         0.1490   -2.7060   -3.0040 hc        1 MOL      0.039904
    171 H74         1.7330   -1.9880   -3.0230 hc        1 MOL      0.039904
    172 H75         0.3910   -0.5740   -1.6180 hc        1 MOL     -0.178068
    173 H76         1.1600   -1.5580   -0.3910 hc        1 MOL     -0.178068
    174 N15         3.2810   -5.1410   -3.2810 n         1 MOL     -0.149022
    175 C58         3.8290   -5.7480   -4.4970 c3        1 MOL     -0.293740
    176 H77         3.4060   -6.7430   -4.6280 h1        1 MOL      0.105996
    177 H78         3.5750   -5.1300   -5.3580 h1        1 MOL      0.105996
    178 H79         4.9130   -5.8220   -4.4100 h1        1 MOL      0.105996
    179 H80         3.9640   -4.6620   -2.7090 hn        1 MOL      0.183585
    180 Ca1        -3.5600   -2.4940    0.6520 Ca        1 MOL      1.802623
    181 O27        -4.9440   -1.7210    2.8850 oh        1 MOL     -0.869925
    182 H81        -4.7280   -1.0300    3.5170 ho        1 MOL      0.419916
    183 H82        -5.8010   -2.0490    3.1850 ho        1 MOL      0.419916
    184 O28        -1.6090   -2.2760    2.5830 oh        1 MOL     -0.869925
    185 H83        -1.7570   -1.6210    3.2700 ho        1 MOL      0.419916
    186 H84        -0.7330   -2.6130    2.7580 ho        1 MOL      0.419916
    187 O29        -2.7720   -4.9200    1.5990 oh        1 MOL     -0.869925
    188 H85        -3.1440   -5.7720    1.3490 ho        1 MOL      0.419916
    189 H86        -1.8230   -5.0640    1.5820 ho        1 MOL      0.419916
@<TRIPOS>BOND
     1    1    2 1   
     2    1    4 1   
     3    1    5 1   
     4    1    6 1   
     5    2    3 2   
     6    2    7 1   
     7    7    8 1   
     8    7   15 1   
     9    8    9 1   
    10    8   11 1   
    11    8   16 1   
    12    9   10 2   
    13    9   19 1   
    14   11   12 1   
    15   11   17 1   
    16   11   18 1   
    17   12   13 1   
    18   12   14 1   
    19   19   20 1   
    20   19   27 1   
    21   20   21 1   
    22   20   23 1   
    23   20   28 1   
    24   21   22 2   
    25   21   38 1   
    26   23   24 1   
    27   23   25 1   
    28   23   29 1   
    29   24   26 1   
    30   24   30 1   
    31   24   31 1   
    32   25   32 1   
    33   25   33 1   
    34   25   34 1   
    35   26   35 1   
    36   26   36 1   
    37   26   37 1   
    38   38   39 1   
    39   38   46 1   
    40   39   40 1   
    41   39   42 1   
    42   39   47 1   
    43   40   41 2   
    44   40   50 1   
    45   42   43 1   
    46   42   48 1   
    47   42   49 1   
    48   43   44 1   
    49   43   45 1   
    50   50   51 1   
    51   50   54 1   
    52   51   52 1   
    53   51   55 1   
    54   51   56 1   
    55   52   53 2   
    56   52   57 1   
    57   57   58 1   
    58   57   65 1   
    59   58   59 1   
    60   58   61 1   
    61   58   66 1   
    62   59   60 2   
    63   59   69 1   
    64   61   62 1   
    65   61   67 1   
    66   61   68 1   
    67   62   63 1   
    68   62   64 1   
    69   69   70 1   
    70   69   73 1   
    71   70   71 1   
    72   70   74 1   
    73   70   75 1   
    74   71   72 2   
    75   71   76 1   
    76   76   77 1   
    77   76   85 1   
    78   77   78 1   
    79   77   80 1   
    80   77   86 1   
    81   78   79 2   
    82   78   93 1   
    83   80   81 1   
    84   80   87 1   
    85   80   88 1   
    86   81   82 1   
    87   81   89 1   
    88   81   90 1   
    89   82   83 1   
    90   82   84 2   
    91   83   91 1   
    92   83   92 1   
    93   93   94 1   
    94   93  100 1   
    95   94   95 1   
    96   94   97 1   
    97   94  101 1   
    98   95   96 2   
    99   95  109 1   
   100   97   98 1   
   101   97   99 1   
   102   97  102 1   
   103   98  103 1   
   104   98  104 1   
   105   98  105 1   
   106   99  106 1   
   107   99  107 1   
   108   99  108 1   
   109  109  110 1   
   110  109  117 1   
   111  110  111 1   
   112  110  113 1   
   113  110  118 1   
   114  111  112 2   
   115  111  123 1   
   116  113  114 1   
   117  113  119 1   
   118  113  120 1   
   119  114  115 1   
   120  114  116 2   
   121  115  121 1   
   122  115  122 1   
   123  123  124 1   
   124  123  135 1   
   125  124  125 1   
   126  124  127 1   
   127  124  136 1   
   128  125  126 2   
   129  125  144 1   
   130  127  128 1   
   131  127  137 1   
   132  127  138 1   
   133  128  129 ar  
   134  128  130 ar  
   135  129  131 ar  
   136  129  139 1   
   137  130  132 ar  
   138  130  140 1   
   139  131  133 ar  
   140  131  141 1   
   141  132  133 ar  
   142  132  142 1   
   143  133  134 1   
   144  134  143 1   
   145  144  145 1   
   146  144  153 1   
   147  145  146 1   
   148  145  148 1   
   149  145  154 1   
   150  146  147 2   
   151  146  159 1   
   152  148  149 1   
   153  148  155 1   
   154  148  156 1   
   155  149  150 1   
   156  149  157 1   
   157  149  158 1   
   158  150  151 1   
   159  150  152 1   
   160  159  160 1   
   161  159  168 1   
   162  160  161 1   
   163  160  163 1   
   164  160  169 1   
   165  161  162 2   
   166  161  174 1   
   167  163  164 1   
   168  163  170 1   
   169  163  171 1   
   170  164  165 1   
   171  164  172 1   
   172  164  173 1   
   173  165  166 1   
   174  165  167 1   
   175  174  175 1   
   176  174  179 1   
   177  175  176 1   
   178  175  177 1   
   179  175  178 1   
   180  181  182 1   
   181  181  183 1   
   182  184  185 1   
   183  184  186 1   
   184  187  188 1   
   185  187  189 1   
@<TRIPOS>SUBSTRUCTURE
     1 MOL         1 TEMP              0 ****  ****    0 ROOT
