@<TRIPOS>MOLECULE
MOL
  189   185     1     0     0
SMALL
resp


@<TRIPOS>ATOM
      1 C1         -4.9940    4.9920    3.1760 c3        1 MOL     -0.350611
      2 C2         -5.5350    3.9750    2.0750 c         1 MOL      0.835892
      3 O1         -4.8690    3.5770    1.1390 o         1 MOL     -0.669173
      4 H1         -5.1090    4.5500    4.1650 hc        1 MOL      0.088846
      5 H2         -3.9390    5.2000    2.9920 hc        1 MOL      0.088846
      6 H3         -5.5620    5.9210    3.1240 hc        1 MOL      0.088846
      7 N1         -6.8030    3.5630    2.2780 n         1 MOL     -0.629118
      8 C3         -7.5800    2.5000    1.6580 c3        1 MOL      0.191934
      9 C4         -6.6810    1.2750    1.4610 c         1 MOL      0.567633
     10 O2         -6.1630    1.0250    0.3820 o         1 MOL     -0.635497
     11 C5         -8.3150    3.0690    0.3520 c3        1 MOL     -0.325264
     12 C6         -7.5370    3.9280   -0.6100 c         1 MOL      0.799281
     13 O3         -6.6280    3.4480   -1.3460 o         1 MOL     -0.734642
     14 O4         -7.8730    5.1200   -0.7550 o         1 MOL     -0.734642
     15 H4         -7.3810    4.0140    2.9750 hn        1 MOL      0.310406
     16 H5         -8.3710    2.1980    2.3460 h1        1 MOL      0.025482
     17 H6         -9.1280    3.7120    0.6930 hc        1 MOL      0.072804
     18 H7         -8.7010    2.2570   -0.2570 hc        1 MOL      0.072804
     19 N2         -6.3850    0.6230    2.5580 n         1 MOL     -0.703333
     20 C7         -5.4170   -0.4630    2.8840 c3        1 MOL      0.493922
     21 C8         -5.6970   -1.7850    2.1390 c         1 MOL      0.186525
     22 O5         -5.7060   -2.8140    2.8650 o         1 MOL     -0.529039
     23 C9         -3.9410    0.0400    2.6410 c3        1 MOL     -0.036645
     24 C10        -2.8870   -1.0970    2.9140 c3        1 MOL     -0.113225
     25 C11        -3.4540    1.3150    3.3740 c3        1 MOL     -0.379082
     26 C12        -2.8280   -1.7680    4.3090 c3        1 MOL     -0.248658
     27 H8         -6.9570    0.8320    3.3630 hn        1 MOL      0.315172
     28 H9         -5.4810   -0.6900    3.9510 h1        1 MOL     -0.024424
     29 H10        -3.9370    0.1070    1.5550 hc        1 MOL     -0.028665
     30 H11        -1.8790   -0.7120    2.7390 hc        1 MOL      0.120905
     31 H12        -3.1500   -1.9050    2.2280 hc        1 MOL      0.120905
     32 H13        -2.6500    1.8560    2.8830 hc        1 MOL      0.091479
     33 H14        -4.3180    1.9830    3.3210 hc        1 MOL      0.091479
     34 H15        -3.1290    1.0850    4.3810 hc        1 MOL      0.091479
     35 H16        -3.7720   -2.1000    4.7340 hc        1 MOL      0.061700
     36 H17        -2.2410   -2.6840    4.3370 hc        1 MOL      0.061700
     37 H18        -2.2530   -1.1210    4.9770 hc        1 MOL      0.061700
     38 N3         -6.0900   -1.7740    0.8430 n         1 MOL     -0.102129
     39 C13        -6.8460   -2.8440    0.1100 c3        1 MOL      0.020270
     40 C14        -6.1350   -4.2440    0.0810 c         1 MOL      0.809033
     41 O6         -6.6780   -5.1820    0.6390 o         1 MOL     -0.612576
     42 C15        -7.3210   -2.2870   -1.2010 c3        1 MOL     -0.566776
     43 C16        -8.1610   -3.3800   -1.8650 c         1 MOL      0.772499
     44 O7         -7.6070   -4.3730   -2.4070 o         1 MOL     -0.701251
     45 O8         -9.4090   -3.4320   -1.8280 o         1 MOL     -0.701251
     46 H19        -6.1120   -0.8740    0.3720 hn        1 MOL      0.308673
     47 H20        -7.7680   -2.9860    0.6860 h1        1 MOL      0.053122
     48 H21        -6.4700   -2.1030   -1.8580 hc        1 MOL      0.129057
     49 H22        -7.8340   -1.3320   -1.0990 hc        1 MOL      0.129057
     50 N4         -4.9190   -4.4280   -0.4910 n         1 MOL     -0.767257
     51 C17        -4.2880   -3.4360   -1.3210 c3        1 MOL      0.405555
     52 C18        -2.8300   -3.7850   -1.7920 c         1 MOL      0.549800
     53 O9         -2.3280   -4.8840   -1.5010 o         1 MOL     -0.616939
     54 H23        -4.5430   -5.3600   -0.3980 hn        1 MOL      0.338435
     55 H24        -4.3180   -2.4870   -0.7790 h1        1 MOL      0.018535
     56 H25        -4.8030   -3.3210   -2.2670 h1        1 MOL      0.018535
     57 N5         -2.1860   -2.9920   -2.6360 n         1 MOL     -0.358580
     58 C19        -2.4100   -1.5390   -2.5960 c3        1 MOL     -0.347736
     59 C20        -2.4640   -0.7600   -1.2460 c         1 MOL      0.374196
     60 O10        -3.5890   -0.3340   -0.9580 o         1 MOL     -0.463389
     61 C21        -3.4470   -1.1400   -3.6040 c3        1 MOL     -0.064621
     62 C22        -3.4580   -2.0010   -4.9040 c         1 MOL      0.669717
     63 O11        -4.5350   -2.6010   -5.0840 o         1 MOL     -0.710129
     64 O12        -2.4790   -2.0110   -5.7390 o         1 MOL     -0.710129
     65 H26        -1.2770   -3.3170   -2.9330 hn        1 MOL      0.287466
     66 H27        -1.5650   -0.9870   -3.0290 h1        1 MOL      0.149267
     67 H28        -3.0910   -0.2210   -4.0690 hc        1 MOL      0.016513
     68 H29        -4.4530   -1.1730   -3.2090 hc        1 MOL      0.016513
     69 N6         -1.4410   -0.5500   -0.4110 n         1 MOL     -0.042143
     70 C23        -0.1230   -1.1340   -0.6100 c3        1 MOL     -0.215288
     71 C24         0.0980   -2.2060    0.4400 c         1 MOL      0.664569
     72 O13        -0.6950   -2.4930    1.3370 o         1 MOL     -0.577255
     73 H30        -1.6710   -0.0690    0.4430 hn        1 MOL      0.115311
     74 H31         0.7020   -0.4370   -0.5070 h1        1 MOL      0.069687
     75 H32         0.1170   -1.6710   -1.5280 h1        1 MOL      0.069687
     76 N7          1.2190   -2.9920    0.2990 n         1 MOL     -0.597758
     77 C25         1.6080   -4.1210    1.1190 c3        1 MOL      0.077897
     78 C26         2.2290   -3.8630    2.4790 c         1 MOL      0.345678
     79 O14         2.4840   -4.8250    3.2060 o         1 MOL     -0.537062
     80 C27         2.4660   -5.1100    0.3700 c3        1 MOL      0.031076
     81 C28         1.7350   -5.6090   -0.9350 c3        1 MOL     -0.302115
     82 C29         2.4850   -6.6110   -1.8170 c         1 MOL      0.653394
     83 N8          1.9960   -6.8950   -2.9840 n         1 MOL     -0.739668
     84 O15         3.4680   -7.2650   -1.4470 o         1 MOL     -0.596324
     85 H33         1.8550   -2.7760   -0.4500 hn        1 MOL      0.326771
     86 H34         0.6800   -4.6200    1.4120 h1        1 MOL      0.125897
     87 H35         2.6380   -5.9700    1.0140 hc        1 MOL      0.029373
     88 H36         3.4160   -4.5960    0.2470 hc        1 MOL      0.029373
     89 H37         1.4850   -4.7000   -1.4810 hc        1 MOL      0.126523
     90 H38         0.8470   -6.0820   -0.5260 hc        1 MOL      0.126523
     91 H39         1.3140   -6.3030   -3.4400 hn        1 MOL      0.350184
     92 H40         2.5610   -7.5490   -3.5040 hn        1 MOL      0.350184
     93 N9          2.5710   -2.6480    2.8530 n         1 MOL      0.022235
     94 C30         3.1530   -2.2670    4.1520 c3        1 MOL     -0.331526
     95 C31         4.5660   -1.7630    3.8990 c         1 MOL      0.551281
     96 O16         5.2610   -1.4670    4.9040 o         1 MOL     -0.567281
     97 C32         2.3830   -1.2330    4.9540 c3        1 MOL      0.360175
     98 C33         1.0300   -1.8460    5.3960 c3        1 MOL     -0.319038
     99 C34         2.1000    0.0870    4.1820 c3        1 MOL     -0.319038
    100 H41         2.2080   -1.9350    2.2380 hn        1 MOL      0.136177
    101 H42         3.3050   -3.1520    4.7580 h1        1 MOL      0.161623
    102 H43         2.9230   -0.9880    5.8640 hc        1 MOL     -0.015259
    103 H44         0.4480   -1.2830    6.1280 hc        1 MOL      0.075537
    104 H45         0.3850   -1.9470    4.5240 hc        1 MOL      0.075537
    105 H46         1.2570   -2.8530    5.7570 hc        1 MOL      0.075537
    106 H47         3.0990    0.5420    4.1210 hc        1 MOL      0.075537
    107 H48         1.6360   -0.1040    3.2240 hc        1 MOL      0.075537
    108 H49         1.4780    0.7450    4.7880 hc        1 MOL      0.075537
    109 N10         5.0890   -1.7430    2.6720 n         1 MOL     -0.361352
    110 C35         6.4500   -1.2890    2.2770 c3        1 MOL      0.054896
    111 C36         6.4200    0.1380    1.6300 c         1 MOL      0.593434
    112 O17         6.9480    1.1010    2.2320 o         1 MOL     -0.582679
    113 C37         7.2150   -2.3780    1.4290 c3        1 MOL     -0.057776
    114 C38         6.3740   -2.8940    0.2170 c         1 MOL      0.517170
    115 N11         6.7600   -3.9780   -0.3870 n         1 MOL     -0.687222
    116 O18         5.3650   -2.3030   -0.1770 o         1 MOL     -0.512919
    117 H50         4.4450   -1.9890    1.9270 hn        1 MOL      0.166470
    118 H51         7.0480   -1.2590    3.1870 h1        1 MOL      0.066760
    119 H52         7.5130   -3.2580    1.9940 hc        1 MOL      0.031751
    120 H53         8.1210   -1.9120    1.0250 hc        1 MOL      0.031751
    121 H54         7.5950   -4.4870   -0.1260 hn        1 MOL      0.354225
    122 H55         6.1200   -4.2870   -1.1090 hn        1 MOL      0.354225
    123 N12         5.8560    0.3530    0.4460 n         1 MOL     -0.608586
    124 C39         6.0930    1.5350   -0.3900 c3        1 MOL      0.309556
    125 C40         4.8350    2.3040   -0.8480 c         1 MOL      0.600210
    126 O19         3.7550    1.7910   -0.8020 o         1 MOL     -0.519406
    127 C41         6.8980    1.1510   -1.6290 c3        1 MOL     -0.023670
    128 C42         8.0500    0.1420   -1.4280 ca        1 MOL     -0.010553
    129 C43         8.1870   -1.0510   -2.2420 ca        1 MOL     -0.124416
    130 C44         8.9250    0.3610   -0.3430 ca        1 MOL     -0.124416
    131 C45         9.3480   -1.8350   -2.1070 ca        1 MOL     -0.265628
    132 C46        10.0180   -0.5470   -0.1560 ca        1 MOL     -0.265628
    133 C47        10.2250   -1.6020   -1.0480 ca        1 MOL      0.331795
    134 O20        11.4430   -2.3380   -0.8990 oh        1 MOL     -0.537493
    135 H56         5.3850   -0.4140   -0.0110 hn        1 MOL      0.275409
    136 H57         6.7670    2.2440    0.0900 h1        1 MOL      0.000390
    137 H58         7.2280    2.0930   -2.0540 hc        1 MOL      0.019146
    138 H59         6.2150    0.7130   -2.3570 hc        1 MOL      0.019146
    139 H60         7.5020   -1.2730   -3.0460 ha        1 MOL      0.139558
    140 H61         8.8640    1.2020    0.3280 ha        1 MOL      0.139558
    141 H62         9.5020   -2.5480   -2.9040 ha        1 MOL      0.143697
    142 H63        10.6490   -0.3980    0.7080 ha        1 MOL      0.143697
    143 H64        11.9330   -1.9540   -0.1760 ho        1 MOL      0.353074
    144 N13         5.0530    3.5180   -1.3550 n         1 MOL     -0.773335
    145 C48         4.1450    4.4480   -1.9910 c3        1 MOL      0.152265
    146 C49         2.9650    4.9040   -1.1110 c         1 MOL      0.343363
    147 O21         2.1660    5.8230   -1.4980 o         1 MOL     -0.506016
    148 C50         3.7120    3.8210   -3.3390 c3        1 MOL     -0.005773
    149 C51         4.8760    3.2450   -4.2330 c3        1 MOL     -0.239226
    150 C52         5.8890    4.3110   -4.4100 c         1 MOL      0.722210
    151 O22         5.4630    5.3880   -4.9060 o         1 MOL     -0.724476
    152 O23         7.0590    4.1580   -4.0130 o         1 MOL     -0.724476
    153 H65         6.0150    3.7470   -1.5580 hn        1 MOL      0.379481
    154 H66         4.7160    5.3310   -2.2980 h1        1 MOL      0.108993
    155 H67         3.0830    4.4710   -3.9460 hc        1 MOL      0.035660
    156 H68         3.0530    2.9970   -3.0780 hc        1 MOL      0.035660
    157 H69         4.5690    2.9820   -5.2470 hc        1 MOL      0.044360
    158 H70         5.2300    2.3290   -3.7530 hc        1 MOL      0.044360
    159 N14         2.8570    4.4240    0.1460 n         1 MOL     -0.316963
    160 C53         1.6330    4.5180    0.8660 c3        1 MOL     -0.002096
    161 C54         1.6880    5.4730    2.1300 c         1 MOL      0.376006
    162 O24         0.6750    5.8080    2.7490 o         1 MOL     -0.519204
    163 C55         1.1940    3.1570    1.3550 c3        1 MOL     -0.150170
    164 C56         0.3820    2.3260    0.3450 c3        1 MOL      0.309471
    165 C57        -0.9180    2.9130   -0.1090 c         1 MOL      0.420237
    166 O25        -1.9490    2.1630    0.0500 o         1 MOL     -0.588619
    167 O26        -1.0150    3.9520   -0.7600 o         1 MOL     -0.588619
    168 H71         3.5590    3.7270    0.3740 hn        1 MOL      0.250789
    169 H72         0.8450    4.9350    0.2280 h1        1 MOL      0.151138
    170 H73         0.5480    3.2700    2.2230 hc        1 MOL      0.031365
    171 H74         1.9700    2.5490    1.8110 hc        1 MOL      0.031365
    172 H75         0.2470    1.3000    0.6830 hc        1 MOL     -0.052660
    173 H76         1.0650    2.2160   -0.4960 hc        1 MOL     -0.052660
    174 N15         2.9070    5.8330    2.4740 n         1 MOL     -0.148058
    175 C58         3.4370    6.8110    3.4570 c3        1 MOL     -0.212607
    176 H77         3.3570    6.3960    4.4620 h1        1 MOL      0.093395
    177 H78         4.4830    7.0220    3.2340 h1        1 MOL      0.093395
    178 H79         2.8600    7.7340    3.4000 h1        1 MOL      0.093395
    179 H80         3.5770    5.3440    1.9030 hn        1 MOL      0.176750
    180 Ca1        -4.2370    2.4250   -1.1930 Ca        1 MOL      1.774458
    181 O27        -3.6300    4.7130   -2.2460 oh        1 MOL     -0.890253
    182 H81        -4.2620    5.3260   -2.6260 ho        1 MOL      0.430857
    183 H82        -2.8720    4.7550   -2.8270 ho        1 MOL      0.430857
    184 O28        -5.4190    1.4320   -3.4770 oh        1 MOL     -0.890253
    185 H83        -5.6130    1.7770   -4.3520 ho        1 MOL      0.430857
    186 H84        -5.8530    0.5820   -3.4470 ho        1 MOL      0.430857
    187 O29        -2.2810    1.8540   -2.7890 oh        1 MOL     -0.890253
    188 H85        -2.4160    2.1550   -3.6920 ho        1 MOL      0.430857
    189 H86        -1.3440    1.9520   -2.6490 ho        1 MOL      0.430857
@<TRIPOS>BOND
     1    1    2 1   
     2    1    4 1   
     3    1    5 1   
     4    1    6 1   
     5    2    3 2   
     6    2    7 1   
     7    7    8 1   
     8    7   15 1   
     9    8    9 1   
    10    8   11 1   
    11    8   16 1   
    12    9   10 2   
    13    9   19 1   
    14   11   12 1   
    15   11   17 1   
    16   11   18 1   
    17   12   13 1   
    18   12   14 1   
    19   19   20 1   
    20   19   27 1   
    21   20   21 1   
    22   20   23 1   
    23   20   28 1   
    24   21   22 2   
    25   21   38 1   
    26   23   24 1   
    27   23   25 1   
    28   23   29 1   
    29   24   26 1   
    30   24   30 1   
    31   24   31 1   
    32   25   32 1   
    33   25   33 1   
    34   25   34 1   
    35   26   35 1   
    36   26   36 1   
    37   26   37 1   
    38   38   39 1   
    39   38   46 1   
    40   39   40 1   
    41   39   42 1   
    42   39   47 1   
    43   40   41 2   
    44   40   50 1   
    45   42   43 1   
    46   42   48 1   
    47   42   49 1   
    48   43   44 1   
    49   43   45 1   
    50   50   51 1   
    51   50   54 1   
    52   51   52 1   
    53   51   55 1   
    54   51   56 1   
    55   52   53 2   
    56   52   57 1   
    57   57   58 1   
    58   57   65 1   
    59   58   59 1   
    60   58   61 1   
    61   58   66 1   
    62   59   60 2   
    63   59   69 1   
    64   61   62 1   
    65   61   67 1   
    66   61   68 1   
    67   62   63 1   
    68   62   64 1   
    69   69   70 1   
    70   69   73 1   
    71   70   71 1   
    72   70   74 1   
    73   70   75 1   
    74   71   72 2   
    75   71   76 1   
    76   76   77 1   
    77   76   85 1   
    78   77   78 1   
    79   77   80 1   
    80   77   86 1   
    81   78   79 2   
    82   78   93 1   
    83   80   81 1   
    84   80   87 1   
    85   80   88 1   
    86   81   82 1   
    87   81   89 1   
    88   81   90 1   
    89   82   83 1   
    90   82   84 2   
    91   83   91 1   
    92   83   92 1   
    93   93   94 1   
    94   93  100 1   
    95   94   95 1   
    96   94   97 1   
    97   94  101 1   
    98   95   96 2   
    99   95  109 1   
   100   97   98 1   
   101   97   99 1   
   102   97  102 1   
   103   98  103 1   
   104   98  104 1   
   105   98  105 1   
   106   99  106 1   
   107   99  107 1   
   108   99  108 1   
   109  109  110 1   
   110  109  117 1   
   111  110  111 1   
   112  110  113 1   
   113  110  118 1   
   114  111  112 2   
   115  111  123 1   
   116  113  114 1   
   117  113  119 1   
   118  113  120 1   
   119  114  115 1   
   120  114  116 2   
   121  115  121 1   
   122  115  122 1   
   123  123  124 1   
   124  123  135 1   
   125  124  125 1   
   126  124  127 1   
   127  124  136 1   
   128  125  126 2   
   129  125  144 1   
   130  127  128 1   
   131  127  137 1   
   132  127  138 1   
   133  128  129 ar  
   134  128  130 ar  
   135  129  131 ar  
   136  129  139 1   
   137  130  132 ar  
   138  130  140 1   
   139  131  133 ar  
   140  131  141 1   
   141  132  133 ar  
   142  132  142 1   
   143  133  134 1   
   144  134  143 1   
   145  144  145 1   
   146  144  153 1   
   147  145  146 1   
   148  145  148 1   
   149  145  154 1   
   150  146  147 2   
   151  146  159 1   
   152  148  149 1   
   153  148  155 1   
   154  148  156 1   
   155  149  150 1   
   156  149  157 1   
   157  149  158 1   
   158  150  151 1   
   159  150  152 1   
   160  159  160 1   
   161  159  168 1   
   162  160  161 1   
   163  160  163 1   
   164  160  169 1   
   165  161  162 2   
   166  161  174 1   
   167  163  164 1   
   168  163  170 1   
   169  163  171 1   
   170  164  165 1   
   171  164  172 1   
   172  164  173 1   
   173  165  166 1   
   174  165  167 1   
   175  174  175 1   
   176  174  179 1   
   177  175  176 1   
   178  175  177 1   
   179  175  178 1   
   180  181  182 1   
   181  181  183 1   
   182  184  185 1   
   183  184  186 1   
   184  187  188 1   
   185  187  189 1   
@<TRIPOS>SUBSTRUCTURE
     1 MOL         1 TEMP              0 ****  ****    0 ROOT
