@<TRIPOS>MOLECULE
MOL
  181   177     1     0     0
SMALL
resp


@<TRIPOS>ATOM
      1 C1         -3.6270   -2.9620   -4.3350 c3        1 MOL     -0.384210
      2 C2         -4.7380   -2.1210   -3.7500 c         1 MOL      0.764939
      3 O1         -4.4740   -1.0590   -3.1670 o         1 MOL     -0.582668
      4 H1         -3.8010   -3.1030   -5.4010 hc        1 MOL      0.096439
      5 H2         -2.6720   -2.4570   -4.1870 hc        1 MOL      0.096439
      6 H3         -3.6050   -3.9330   -3.8390 hc        1 MOL      0.096439
      7 N1         -5.9930   -2.5680   -3.7510 n         1 MOL     -0.698573
      8 C3         -7.1330   -1.8390   -3.2540 c3        1 MOL      0.330494
      9 C4         -7.4720   -2.1300   -1.7910 c         1 MOL      0.714138
     10 O2         -7.2820   -3.2260   -1.3210 o         1 MOL     -0.628904
     11 C5         -8.3590   -2.1830   -4.1280 c3        1 MOL     -0.193969
     12 C6         -9.6030   -1.2140   -4.0980 c         1 MOL      0.697939
     13 O3         -9.6800   -0.3190   -3.2280 o         1 MOL     -0.720621
     14 O4        -10.4690   -1.3960   -4.9800 o         1 MOL     -0.720621
     15 H4         -6.0950   -3.4870   -4.1570 hn        1 MOL      0.320511
     16 H5         -6.9750   -0.7600   -3.2560 h1        1 MOL     -0.025694
     17 H6         -8.6700   -3.2110   -3.9900 hc        1 MOL      0.011312
     18 H7         -8.0240   -2.0810   -5.1640 hc        1 MOL      0.011312
     19 N2         -7.9320   -1.2140   -0.9340 n         1 MOL     -0.767663
     20 C7         -8.3180   -1.5130    0.4860 c3        1 MOL      0.536675
     21 C8         -7.0510   -1.7520    1.3920 c         1 MOL      0.298025
     22 O5         -7.2730   -1.9670    2.5320 o         1 MOL     -0.498402
     23 C9         -9.2360   -0.5110    1.1260 c3        1 MOL     -0.271470
     24 H8         -8.0600   -0.2800   -1.2890 hn        1 MOL      0.303107
     25 H9         -8.8960   -2.4360    0.4070 h1        1 MOL      0.003981
     26 H10        -8.8740    0.5260    1.1310 hc        1 MOL      0.059263
     27 H11       -10.1750   -0.6020    0.5790 hc        1 MOL      0.059263
     28 H12        -9.4690   -0.8790    2.1190 hc        1 MOL      0.059263
     29 N3         -5.8220   -1.7290    0.8280 n         1 MOL     -0.387654
     30 C10        -4.5470   -1.7670    1.5560 c3        1 MOL      0.434342
     31 C11        -4.6000   -0.9380    2.8830 c         1 MOL      0.362606
     32 O6         -4.3290   -1.5320    3.9470 o         1 MOL     -0.442561
     33 C12        -4.3010   -3.2690    1.8600 c3        1 MOL     -0.108842
     34 C13        -2.8720   -3.5550    2.3090 c         1 MOL      0.525374
     35 O7         -2.5780   -4.6280    2.9020 o         1 MOL     -0.694524
     36 O8         -1.9480   -2.7230    2.0870 o         1 MOL     -0.694524
     37 H13        -5.7640   -1.6210   -0.1720 hn        1 MOL      0.208531
     38 H14        -3.8220   -1.3320    0.8630 h1        1 MOL     -0.030315
     39 H15        -4.3810   -3.7460    0.8850 hc        1 MOL      0.039098
     40 H16        -5.0750   -3.6450    2.5360 hc        1 MOL      0.039098
     41 N4         -4.9860    0.3510    2.7460 n         1 MOL     -0.470911
     42 C14        -5.1750    1.2100    3.9220 c3        1 MOL      0.229400
     43 C15        -4.3950    2.4460    4.1520 c         1 MOL      0.560994
     44 O9         -4.9320    3.2470    4.9190 o         1 MOL     -0.592056
     45 H17        -5.4330    0.6520    1.8860 hn        1 MOL      0.242150
     46 H18        -4.9990    0.6740    4.8530 h1        1 MOL      0.012641
     47 H19        -6.2430    1.4320    3.9310 h1        1 MOL      0.012641
     48 N5         -3.1750    2.5880    3.5740 n         1 MOL     -0.584538
     49 C16        -2.3120    3.6800    3.8680 c3        1 MOL      0.382757
     50 C17        -1.9790    4.5530    2.5940 c         1 MOL      0.376386
     51 O10        -1.8050    4.0180    1.5520 o         1 MOL     -0.404597
     52 C18        -1.0330    3.0870    4.5730 c3        1 MOL     -0.228943
     53 C19         0.1090    4.0310    4.8620 c         1 MOL      0.575161
     54 N6          0.3600    4.3340    6.1290 n         1 MOL     -0.788461
     55 O11         0.8180    4.5230    4.0200 o         1 MOL     -0.491176
     56 H20        -2.7620    1.8250    3.0610 hn        1 MOL      0.284663
     57 H21        -2.8000    4.2810    4.6310 h1        1 MOL     -0.035812
     58 H22        -0.6700    2.3420    3.8560 hc        1 MOL      0.086571
     59 H23        -1.4000    2.5930    5.4740 hc        1 MOL      0.086571
     60 H24        -0.1890    3.9740    6.8990 hn        1 MOL      0.352718
     61 H25         1.0910    4.9980    6.2940 hn        1 MOL      0.352718
     62 N7         -1.9190    5.9290    2.7030 n         1 MOL     -0.349978
     63 C20        -1.9290    6.8010    1.5490 c3        1 MOL     -0.164419
     64 C21        -0.6430    6.5970    0.7070 c         1 MOL      0.498571
     65 O12         0.4530    6.5890    1.2160 o         1 MOL     -0.469203
     66 H26        -1.8720    6.3330    3.6280 hn        1 MOL      0.267089
     67 H27        -2.1080    7.8190    1.8940 h1        1 MOL      0.082256
     68 H28        -2.7320    6.5690    0.8460 h1        1 MOL      0.082256
     69 N8         -0.7940    6.3580   -0.6270 n         1 MOL     -0.194847
     70 C22         0.3640    6.4480   -1.5090 c3        1 MOL     -0.266731
     71 C23         0.5480    5.1750   -2.3380 c         1 MOL      0.806096
     72 O13         1.5120    5.0670   -3.0920 o         1 MOL     -0.650404
     73 C24         0.4720    7.8210   -2.3440 c3        1 MOL      0.413576
     74 C25        -0.2910    7.8500   -3.6800 c3        1 MOL     -0.157237
     75 O14         0.2300    8.9430   -1.5220 oh        1 MOL     -0.588895
     76 H29        -1.6900    6.4540   -1.1010 hn        1 MOL      0.218637
     77 H30         1.2980    6.4820   -0.9410 h1        1 MOL      0.113068
     78 H31         1.5170    7.8600   -2.6480 h1        1 MOL      0.023677
     79 H32        -0.6360    8.7860   -1.1530 ho        1 MOL      0.317094
     80 H33        -0.0760    6.9040   -4.1820 hc        1 MOL      0.018728
     81 H34        -1.3520    7.8730   -3.4340 hc        1 MOL      0.018728
     82 H35        -0.0500    8.7670   -4.2160 hc        1 MOL      0.018728
     83 N9         -0.3710    4.2630   -2.3050 n         1 MOL     -0.556470
     84 C26        -0.1230    2.8940   -2.6500 c3        1 MOL     -0.036738
     85 C27         0.2800    2.0090   -1.4190 c         1 MOL      0.611485
     86 O15        -0.1280    2.3750   -0.3260 o         1 MOL     -0.497301
     87 C28        -1.3470    2.2870   -3.4370 c3        1 MOL      0.090813
     88 C29        -1.3430    2.4600   -4.9950 c3        1 MOL     -0.145260
     89 C30        -1.6830    0.8770   -3.1140 c3        1 MOL     -0.301739
     90 C31        -0.9850    3.8950   -5.5200 c3        1 MOL      0.016109
     91 H36        -1.2140    4.4010   -1.7630 hn        1 MOL      0.259141
     92 H37         0.7250    2.8670   -3.3340 h1        1 MOL      0.099671
     93 H38        -2.2640    2.7830   -3.1310 hc        1 MOL      0.050625
     94 H39        -2.3360    2.1820   -5.3170 hc        1 MOL      0.028857
     95 H40        -0.5650    1.7980   -5.3750 hc        1 MOL      0.028857
     96 H41        -0.8570    0.2260   -3.3850 hc        1 MOL      0.100097
     97 H42        -1.7250    0.5960   -2.0580 hc        1 MOL      0.100097
     98 H43        -2.5500    0.4370   -3.6100 hc        1 MOL      0.100097
     99 H44        -0.0040    4.1460   -5.1180 hc        1 MOL      0.004989
    100 H45        -0.7870    3.8770   -6.5920 hc        1 MOL      0.004989
    101 H46        -1.7900    4.6070   -5.3760 hc        1 MOL      0.004989
    102 N10         1.1640    1.0520   -1.7090 n         1 MOL     -0.701591
    103 C32         1.5300    0.0230   -0.7340 c3        1 MOL      0.286919
    104 C33         3.0990   -0.1230   -0.3790 c         1 MOL      0.550339
    105 O16         3.5330   -1.1650    0.1450 o         1 MOL     -0.523756
    106 C34         0.8680   -1.2840   -1.1070 c3        1 MOL      0.079320
    107 C35         0.5720   -2.2360    0.1130 c         1 MOL      0.552081
    108 O17         0.2040   -3.4230   -0.1680 o         1 MOL     -0.685308
    109 O18         0.7330   -1.8320    1.2580 o         1 MOL     -0.685308
    110 H47         1.4770    1.0740   -2.6660 hn        1 MOL      0.322279
    111 H48         1.2060    0.3760    0.2440 h1        1 MOL      0.022447
    112 H49         1.5270   -1.8940   -1.7120 hc        1 MOL     -0.049420
    113 H50        -0.0500   -1.1670   -1.6840 hc        1 MOL     -0.049420
    114 N11         3.9380    0.9060   -0.6060 n         1 MOL     -0.449575
    115 C36         5.3120    0.9690   -0.1280 c3        1 MOL      0.109203
    116 C37         6.1940   -0.2170   -0.6280 c         1 MOL      0.023393
    117 O19         6.3560   -0.3250   -1.8470 o         1 MOL     -0.359856
    118 C38         5.9420    2.3260   -0.4100 c3        1 MOL     -0.180098
    119 C39         7.3470    2.4750    0.0390 ca        1 MOL     -0.035283
    120 C40         7.5490    2.8550    1.3510 ca        1 MOL     -0.042831
    121 C41         8.4140    1.9880   -0.7880 ca        1 MOL     -0.042831
    122 C42         8.7990    2.8250    1.9560 ca        1 MOL     -0.177189
    123 C43         9.6520    1.8800   -0.1330 ca        1 MOL     -0.177189
    124 C44         9.8380    2.2510    1.2080 ca        1 MOL     -0.083528
    125 H51         3.5790    1.7890   -0.9450 hn        1 MOL      0.274535
    126 H52         5.2090    0.8730    0.9540 h1        1 MOL      0.053209
    127 H53         5.3440    3.2160   -0.1840 hc        1 MOL      0.103746
    128 H54         6.0710    2.4530   -1.4870 hc        1 MOL      0.103746
    129 H55         6.7340    3.2150    1.9700 ha        1 MOL      0.107280
    130 H56         8.2640    1.7030   -1.8170 ha        1 MOL      0.107280
    131 H57         9.0350    3.1310    2.9650 ha        1 MOL      0.118437
    132 H58        10.4640    1.5090   -0.7430 ha        1 MOL      0.118437
    133 H59        10.7510    2.0100    1.7280 ha        1 MOL      0.093542
    134 N12         6.9040   -0.9760    0.2340 n         1 MOL      0.144241
    135 C45         7.7800   -2.0920   -0.2600 c3        1 MOL      0.063188
    136 C46         7.1880   -3.0040   -1.2810 c         1 MOL      0.143150
    137 O20         7.9510   -3.4430   -2.1850 o         1 MOL     -0.483314
    138 C47         8.2550   -2.7800    1.0100 c3        1 MOL     -0.056760
    139 C48         8.2440   -1.7020    2.1050 c3        1 MOL     -0.073217
    140 C49         6.9900   -0.9020    1.6970 c3        1 MOL     -0.042760
    141 H60         8.6570   -1.5910   -0.6890 h1        1 MOL      0.079779
    142 H61         7.5860   -3.5510    1.3870 hc        1 MOL      0.033382
    143 H62         9.2800   -3.1280    0.8990 hc        1 MOL      0.033382
    144 H63         8.0840   -2.1580    3.0820 hc        1 MOL      0.036116
    145 H64         9.1710   -1.1280    2.0620 hc        1 MOL      0.036116
    146 H65         6.1420   -1.3220    2.2470 h1        1 MOL      0.040670
    147 H66         7.1380    0.1160    2.0720 h1        1 MOL      0.040670
    148 N13         5.9480   -3.4210   -1.2850 n         1 MOL      0.120990
    149 C50         5.1870   -4.1280   -2.2880 c3        1 MOL     -0.461877
    150 C51         5.0160   -3.3730   -3.6290 c         1 MOL      0.586023
    151 O21         5.3340   -3.8490   -4.7140 o         1 MOL     -0.531079
    152 C52         3.7510   -4.5750   -1.7200 c3        1 MOL      0.132759
    153 C53         3.9970   -5.4590   -0.4820 c3        1 MOL      0.005039
    154 C54         2.6730   -5.7830    0.2120 c         1 MOL      0.654420
    155 O22         2.3590   -5.1110    1.2180 o         1 MOL     -0.732513
    156 O23         1.8450   -6.6000   -0.2970 o         1 MOL     -0.732513
    157 H67         5.4800   -3.2780   -0.4040 hn        1 MOL      0.174926
    158 H68         5.8080   -5.0240   -2.3770 h1        1 MOL      0.154091
    159 H69         3.1480   -5.1580   -2.4160 hc        1 MOL      0.042177
    160 H70         3.2260   -3.6600   -1.4290 hc        1 MOL      0.042177
    161 H71         4.7000   -5.0120    0.2340 hc        1 MOL     -0.040403
    162 H72         4.4070   -6.4110   -0.8100 hc        1 MOL     -0.040403
    163 N14         4.6270   -2.0650   -3.5120 n         1 MOL     -0.255081
    164 C55         4.3110   -1.1050   -4.6050 c3        1 MOL     -0.264692
    165 H73         3.5320   -0.4200   -4.2720 h1        1 MOL      0.106956
    166 H74         5.2070   -0.5390   -4.8620 h1        1 MOL      0.106956
    167 H75         3.9630   -1.6520   -5.4810 h1        1 MOL      0.106956
    168 H76         4.6990   -1.6760   -2.5840 hn        1 MOL      0.212838
    169 Ca1         0.0470   -4.0550    2.4910 Ca        1 MOL      1.734504
    170 O24        -0.6310   -2.5650    4.6400 oh        1 MOL     -0.835152
    171 H77        -1.3920   -2.0830    4.9690 ho        1 MOL      0.408044
    172 H78         0.0830   -2.3110    5.2360 ho        1 MOL      0.408044
    173 O25         0.0180   -5.8420    4.6100 oh        1 MOL     -0.835152
    174 H79        -0.2260   -6.7250    4.8490 ho        1 MOL      0.408044
    175 H80         0.3240   -5.4430    5.4200 ho        1 MOL      0.408044
    176 O26         2.0700   -3.3620    4.0750 oh        1 MOL     -0.835152
    177 H81         2.5450   -3.8980    4.7070 ho        1 MOL      0.408044
    178 H82         2.7250   -3.1390    3.4110 ho        1 MOL      0.408044
    179 O27        -0.3920   -6.1990    0.9620 oh        1 MOL     -0.835152
    180 H83        -1.1220   -6.4930    0.4270 ho        1 MOL      0.408044
    181 H84         0.3900   -6.3870    0.4360 ho        1 MOL      0.408044
@<TRIPOS>BOND
     1    1    2 1   
     2    1    4 1   
     3    1    5 1   
     4    1    6 1   
     5    2    3 2   
     6    2    7 1   
     7    7    8 1   
     8    7   15 1   
     9    8    9 1   
    10    8   11 1   
    11    8   16 1   
    12    9   10 2   
    13    9   19 1   
    14   11   12 1   
    15   11   17 1   
    16   11   18 1   
    17   12   13 1   
    18   12   14 1   
    19   19   20 1   
    20   19   24 1   
    21   20   21 1   
    22   20   23 1   
    23   20   25 1   
    24   21   22 2   
    25   21   29 1   
    26   23   26 1   
    27   23   27 1   
    28   23   28 1   
    29   29   30 1   
    30   29   37 1   
    31   30   31 1   
    32   30   33 1   
    33   30   38 1   
    34   31   32 2   
    35   31   41 1   
    36   33   34 1   
    37   33   39 1   
    38   33   40 1   
    39   34   35 1   
    40   34   36 1   
    41   41   42 1   
    42   41   45 1   
    43   42   43 1   
    44   42   46 1   
    45   42   47 1   
    46   43   44 2   
    47   43   48 1   
    48   48   49 1   
    49   48   56 1   
    50   49   50 1   
    51   49   52 1   
    52   49   57 1   
    53   50   51 2   
    54   50   62 1   
    55   52   53 1   
    56   52   58 1   
    57   52   59 1   
    58   53   54 1   
    59   53   55 2   
    60   54   60 1   
    61   54   61 1   
    62   62   63 1   
    63   62   66 1   
    64   63   64 1   
    65   63   67 1   
    66   63   68 1   
    67   64   65 2   
    68   64   69 1   
    69   69   70 1   
    70   69   76 1   
    71   70   71 1   
    72   70   73 1   
    73   70   77 1   
    74   71   72 2   
    75   71   83 1   
    76   73   74 1   
    77   73   75 1   
    78   73   78 1   
    79   74   80 1   
    80   74   81 1   
    81   74   82 1   
    82   75   79 1   
    83   83   84 1   
    84   83   91 1   
    85   84   85 1   
    86   84   87 1   
    87   84   92 1   
    88   85   86 2   
    89   85  102 1   
    90   87   88 1   
    91   87   89 1   
    92   87   93 1   
    93   88   90 1   
    94   88   94 1   
    95   88   95 1   
    96   89   96 1   
    97   89   97 1   
    98   89   98 1   
    99   90   99 1   
   100   90  100 1   
   101   90  101 1   
   102  102  103 1   
   103  102  110 1   
   104  103  104 1   
   105  103  106 1   
   106  103  111 1   
   107  104  105 2   
   108  104  114 1   
   109  106  107 1   
   110  106  112 1   
   111  106  113 1   
   112  107  108 1   
   113  107  109 1   
   114  114  115 1   
   115  114  125 1   
   116  115  116 1   
   117  115  118 1   
   118  115  126 1   
   119  116  117 2   
   120  116  134 1   
   121  118  119 1   
   122  118  127 1   
   123  118  128 1   
   124  119  120 ar  
   125  119  121 ar  
   126  120  122 ar  
   127  120  129 1   
   128  121  123 ar  
   129  121  130 1   
   130  122  124 ar  
   131  122  131 1   
   132  123  124 ar  
   133  123  132 1   
   134  124  133 1   
   135  134  135 1   
   136  134  140 1   
   137  135  136 1   
   138  135  138 1   
   139  135  141 1   
   140  136  137 2   
   141  136  148 1   
   142  138  139 1   
   143  138  142 1   
   144  138  143 1   
   145  139  140 1   
   146  139  144 1   
   147  139  145 1   
   148  140  146 1   
   149  140  147 1   
   150  148  149 1   
   151  148  157 1   
   152  149  150 1   
   153  149  152 1   
   154  149  158 1   
   155  150  151 2   
   156  150  163 1   
   157  152  153 1   
   158  152  159 1   
   159  152  160 1   
   160  153  154 1   
   161  153  161 1   
   162  153  162 1   
   163  154  155 1   
   164  154  156 1   
   165  163  164 1   
   166  163  168 1   
   167  164  165 1   
   168  164  166 1   
   169  164  167 1   
   170  170  171 1   
   171  170  172 1   
   172  173  174 1   
   173  173  175 1   
   174  176  177 1   
   175  176  178 1   
   176  179  180 1   
   177  179  181 1   
@<TRIPOS>SUBSTRUCTURE
     1 MOL         1 TEMP              0 ****  ****    0 ROOT
