@<TRIPOS>MOLECULE
MOL
  178   175     1     0     0
SMALL
resp


@<TRIPOS>ATOM
      1 C1          1.0640    7.1850   -1.6770 c3        1 MOL     -0.412080
      2 C2          2.4440    6.6990   -1.1820 c         1 MOL      0.698764
      3 O1          2.8480    7.0000   -0.0550 o         1 MOL     -0.578992
      4 H1          0.2820    6.7450   -1.0590 hc        1 MOL      0.097834
      5 H2          1.0130    8.2720   -1.6070 hc        1 MOL      0.097834
      6 H3          0.9210    6.8800   -2.7140 hc        1 MOL      0.097834
      7 N1          3.1700    5.9490   -1.9900 n         1 MOL     -0.594921
      8 C3          4.5070    5.5320   -1.5540 c3        1 MOL      0.175730
      9 C4          4.3350    4.3240   -0.5910 c         1 MOL      0.649794
     10 O2          3.4750    3.4570   -0.9050 o         1 MOL     -0.586656
     11 C5          5.4770    5.4000   -2.7220 c3        1 MOL     -0.234927
     12 C6          6.8290    4.8440   -2.2580 c         1 MOL      0.776474
     13 O3          7.5100    5.4490   -1.3840 o         1 MOL     -0.749907
     14 O4          7.2050    3.8310   -2.8460 o         1 MOL     -0.749907
     15 H4          2.7810    5.6890   -2.8890 hn        1 MOL      0.320357
     16 H5          4.9200    6.3530   -0.9580 h1        1 MOL      0.039457
     17 H6          5.7020    6.3400   -3.2300 hc        1 MOL      0.024103
     18 H7          4.9580    4.7780   -3.4560 hc        1 MOL      0.024103
     19 N2          5.1120    4.2360    0.5060 n         1 MOL     -0.773084
     20 C7          5.0620    3.1740    1.5230 c3        1 MOL      0.837265
     21 C8          3.8740    3.3390    2.4980 c         1 MOL      0.213664
     22 O5          3.2850    4.4050    2.4460 o         1 MOL     -0.491479
     23 C9          6.3850    3.1610    2.2600 c3        1 MOL     -0.429775
     24 H8          5.6850    5.0160    0.7870 hn        1 MOL      0.335190
     25 H9          4.9640    2.2110    1.0210 h1        1 MOL     -0.076007
     26 H10         6.5480    2.3240    2.9370 hc        1 MOL      0.090801
     27 H11         7.1340    2.8840    1.5090 hc        1 MOL      0.090801
     28 H12         6.5770    4.0980    2.7800 hc        1 MOL      0.090801
     29 N3          3.4310    2.3880    3.3530 n         1 MOL     -0.305050
     30 C10         4.0790    1.1160    3.7430 c3        1 MOL     -0.019516
     31 C11         4.4200    0.2110    2.5450 c         1 MOL      0.323899
     32 O6          3.5650    0.0350    1.6800 o         1 MOL     -0.399959
     33 C12         3.2570    0.3590    4.8450 c3        1 MOL     -0.162011
     34 C13         1.7430    0.4330    4.7190 c         1 MOL      0.701563
     35 O7          1.0210    0.5580    5.6990 o         1 MOL     -0.681421
     36 O8          1.1960    0.3000    3.5520 o         1 MOL     -0.681421
     37 H13         2.6220    2.6260    3.9130 hn        1 MOL      0.258967
     38 H14         5.0330    1.4080    4.1710 h1        1 MOL      0.029915
     39 H15         3.6480    0.7360    5.7960 hc        1 MOL      0.049299
     40 H16         3.5340   -0.7000    4.8200 hc        1 MOL      0.049299
     41 N4          5.5760   -0.4070    2.4850 n         1 MOL     -0.388450
     42 C14         6.0330   -1.3880    1.3860 c3        1 MOL      0.023079
     43 C15         6.8160   -0.8080    0.1700 c         1 MOL      0.602548
     44 O9          7.1160    0.4090    0.1600 o         1 MOL     -0.521788
     45 H17         6.3040   -0.2250    3.1560 hn        1 MOL      0.282768
     46 H18         5.2240   -1.7970    0.7920 h1        1 MOL      0.046110
     47 H19         6.6090   -2.1730    1.8880 h1        1 MOL      0.046110
     48 N5          7.1950   -1.6660   -0.7430 n         1 MOL     -0.624985
     49 C16         6.9670   -3.1770   -0.8670 c3        1 MOL      0.211213
     50 C17         5.7560   -3.5380   -1.7490 c         1 MOL      0.586665
     51 O10         5.3670   -4.6720   -1.6190 o         1 MOL     -0.575024
     52 C18         8.2460   -3.6980   -1.6000 c3        1 MOL     -0.417200
     53 C19         9.4540   -3.4810   -0.7080 c         1 MOL      0.806618
     54 N6         10.6210   -3.6990   -1.2720 n         1 MOL     -0.871769
     55 O11         9.3860   -3.0680    0.4510 o         1 MOL     -0.555850
     56 H20         7.7180   -1.1920   -1.4680 hn        1 MOL      0.341334
     57 H21         6.9070   -3.6760    0.0960 h1        1 MOL      0.064825
     58 H22         8.4750   -3.1750   -2.5270 hc        1 MOL      0.110520
     59 H23         8.1310   -4.7780   -1.6960 hc        1 MOL      0.110520
     60 H24        10.6590   -3.9020   -2.2570 hn        1 MOL      0.383201
     61 H25        11.4910   -3.5350   -0.7820 hn        1 MOL      0.383201
     62 N7          5.1600   -2.5920   -2.4800 n         1 MOL     -0.374734
     63 C20         4.0490   -2.7670   -3.4500 c3        1 MOL     -0.261119
     64 C21         2.6400   -3.2500   -3.0080 c         1 MOL      0.631466
     65 O12         1.7660   -3.0460   -3.8140 o         1 MOL     -0.574725
     66 H26         5.6570   -1.7450   -2.6990 hn        1 MOL      0.281566
     67 H27         4.4040   -3.4170   -4.2410 h1        1 MOL      0.140679
     68 H28         3.8790   -1.8400   -3.9900 h1        1 MOL      0.140679
     69 N8          2.4500   -3.8360   -1.8590 n         1 MOL     -0.342084
     70 C22         1.1620   -4.5860   -1.6320 c3        1 MOL     -0.195696
     71 C23        -0.0330   -3.6240   -1.2230 c         1 MOL      0.558108
     72 O13         0.1820   -2.6260   -0.5380 o         1 MOL     -0.464327
     73 C24         1.3640   -5.5710   -0.4950 c3        1 MOL      0.397201
     74 C25         2.4200   -6.5980   -0.8390 c3        1 MOL     -0.580559
     75 O14         1.8500   -4.9320    0.6490 oh        1 MOL     -0.658602
     76 H29         3.2120   -3.9000   -1.1980 hn        1 MOL      0.261885
     77 H30         0.9060   -5.1600   -2.5300 h1        1 MOL      0.129845
     78 H31         0.4350   -6.0770   -0.2550 h1        1 MOL      0.039898
     79 H32         1.5170   -5.4520    1.3790 ho        1 MOL      0.458328
     80 H33         2.5690   -7.4370   -0.1590 hc        1 MOL      0.154065
     81 H34         2.3100   -6.9150   -1.8760 hc        1 MOL      0.154065
     82 H35         3.4030   -6.1450   -0.6580 hc        1 MOL      0.154065
     83 N9         -1.3100   -3.8610   -1.5660 n         1 MOL     -0.432493
     84 C26        -2.4920   -3.1240   -1.2660 c3        1 MOL     -0.093583
     85 C27        -3.0310   -3.4300    0.1800 c         1 MOL      0.476109
     86 O15        -3.3590   -4.6110    0.5060 o         1 MOL     -0.590592
     87 C28        -3.5810   -3.3260   -2.3080 c3        1 MOL      0.106677
     88 C29        -4.8400   -2.5610   -1.8770 c3        1 MOL      0.169913
     89 C30        -3.1450   -3.1610   -3.7810 c3        1 MOL     -0.156062
     90 C31        -6.0520   -2.8460   -2.8250 c3        1 MOL     -0.018578
     91 H36        -1.4590   -4.7460   -2.0350 hn        1 MOL      0.258486
     92 H37        -2.2530   -2.0560   -1.3190 h1        1 MOL      0.161951
     93 H38        -3.8860   -4.3680   -2.2370 hc        1 MOL     -0.007835
     94 H39        -4.6860   -1.4840   -1.8570 hc        1 MOL     -0.047210
     95 H40        -5.1120   -2.9450   -0.8910 hc        1 MOL     -0.047210
     96 H41        -2.6890   -2.2070   -4.0500 hc        1 MOL      0.028790
     97 H42        -2.3980   -3.9080   -4.0360 hc        1 MOL      0.028790
     98 H43        -4.0000   -3.2790   -4.4470 hc        1 MOL      0.028790
     99 H44        -6.9110   -2.6920   -2.1710 hc        1 MOL     -0.024067
    100 H45        -6.1300   -2.0990   -3.6100 hc        1 MOL     -0.024067
    101 H46        -6.0690   -3.8430   -3.2650 hc        1 MOL     -0.024067
    102 N10        -2.9750   -2.4280    0.9690 n         1 MOL     -0.115929
    103 C32        -3.5410   -2.4480    2.3200 c3        1 MOL     -0.133986
    104 C33        -4.8760   -1.7200    2.5110 c         1 MOL      0.449635
    105 O16        -5.5820   -1.8700    3.5260 o         1 MOL     -0.574022
    106 C34        -2.5460   -1.9870    3.4100 c3        1 MOL      0.079598
    107 C35        -1.1950   -2.5840    3.1870 c         1 MOL      0.762336
    108 O17        -1.0060   -3.7190    3.6670 o         1 MOL     -0.746425
    109 O18        -0.3000   -1.9680    2.5800 o         1 MOL     -0.746425
    110 H47        -2.8110   -1.5080    0.6020 hn        1 MOL      0.199779
    111 H48        -3.7200   -3.4810    2.6040 h1        1 MOL      0.098292
    112 H49        -2.8350   -2.2440    4.4310 hc        1 MOL     -0.021308
    113 H50        -2.4670   -0.8980    3.3390 hc        1 MOL     -0.021308
    114 N11        -5.2690   -0.8760    1.5730 n         1 MOL     -0.386493
    115 C36        -6.6020   -0.2590    1.4780 c3        1 MOL      0.454563
    116 C37        -6.4460    1.2040    0.8650 c         1 MOL      0.150313
    117 O19        -7.2810    1.5510    0.0450 o         1 MOL     -0.439047
    118 C38        -7.5250   -1.2130    0.6720 c3        1 MOL     -0.310546
    119 C39        -9.0200   -0.8740    0.4460 ca        1 MOL      0.062244
    120 C40        -9.7330    0.0720    1.2200 ca        1 MOL     -0.072597
    121 C41        -9.7300   -1.6250   -0.5360 ca        1 MOL     -0.072597
    122 C42       -11.1310    0.2080    1.0630 ca        1 MOL     -0.197074
    123 C43       -11.1140   -1.5010   -0.7040 ca        1 MOL     -0.197074
    124 C44       -11.8440   -0.5090    0.0590 ca        1 MOL     -0.091386
    125 H51        -4.6390   -0.6940    0.8000 hn        1 MOL      0.217469
    126 H52        -6.9620   -0.0970    2.4930 h1        1 MOL     -0.014817
    127 H53        -7.5590   -2.1920    1.1540 hc        1 MOL      0.114437
    128 H54        -7.0540   -1.3110   -0.3030 hc        1 MOL      0.114437
    129 H55        -9.2620    0.5390    2.0830 ha        1 MOL      0.096988
    130 H56        -9.2170   -2.4440   -1.0160 ha        1 MOL      0.096988
    131 H57       -11.6960    0.7820    1.7790 ha        1 MOL      0.115870
    132 H58       -11.6830   -2.0940   -1.4030 ha        1 MOL      0.115870
    133 H59       -12.9070   -0.3460   -0.0170 ha        1 MOL      0.095635
    134 N12        -5.4730    2.0140    1.2370 n         1 MOL      0.009350
    135 C45        -5.4420    3.4220    0.8800 c3        1 MOL     -0.000749
    136 C46        -5.1720    3.5990   -0.6200 c         1 MOL      0.143772
    137 O20        -5.5890    4.5880   -1.2290 o         1 MOL     -0.472601
    138 C47        -4.3730    4.0930    1.7020 c3        1 MOL     -0.044804
    139 C48        -4.1880    3.1790    2.8980 c3        1 MOL     -0.035572
    140 C49        -4.5260    1.8230    2.4260 c3        1 MOL      0.086713
    141 H60        -6.3850    3.9120    1.1300 h1        1 MOL      0.083802
    142 H61        -3.3830    4.1990    1.2350 hc        1 MOL      0.048410
    143 H62        -4.6550    5.0830    2.0350 hc        1 MOL      0.048410
    144 H63        -3.1970    3.3130    3.3410 hc        1 MOL      0.019161
    145 H64        -4.9580    3.4300    3.6230 hc        1 MOL      0.019161
    146 H65        -3.6770    1.1750    2.2310 h1        1 MOL      0.015559
    147 H66        -5.0310    1.3560    3.2700 h1        1 MOL      0.015559
    148 N13        -4.3790    2.7510   -1.2900 n         1 MOL      0.117207
    149 C50        -3.8550    2.9000   -2.6330 c3        1 MOL     -0.050819
    150 C51        -4.9990    2.8440   -3.5450 c         1 MOL      0.431779
    151 O21        -5.2130    3.8120   -4.3140 o         1 MOL     -0.545079
    152 C52        -2.8140    1.7610   -2.8260 c3        1 MOL     -0.047873
    153 C53        -1.8870    1.6400   -1.5980 c3        1 MOL     -0.084926
    154 C54        -2.1740    0.4800   -0.5300 c         1 MOL      0.639241
    155 O22        -1.2900   -0.1350   -0.0030 o         1 MOL     -0.670328
    156 O23        -3.3620    0.1500   -0.3130 o         1 MOL     -0.670328
    157 H67        -4.0600    1.9200   -0.8090 hn        1 MOL      0.039454
    158 H68        -3.3180    3.8540   -2.7120 h1        1 MOL      0.074916
    159 H69        -2.3370    1.9960   -3.7820 hc        1 MOL      0.008389
    160 H70        -3.3000    0.7970   -2.8950 hc        1 MOL      0.008389
    161 H71        -1.8620    2.5580   -1.0020 hc        1 MOL      0.038305
    162 H72        -0.8250    1.5590   -1.8510 hc        1 MOL      0.038305
    163 N14        -5.8240    1.7920   -3.4170 n         1 MOL     -0.192566
    164 C55        -7.1430    1.7290   -4.0690 c3        1 MOL     -0.142755
    165 H73        -7.8410    1.1960   -3.4240 h1        1 MOL      0.076107
    166 H74        -7.5110    2.7400   -4.2440 h1        1 MOL      0.076107
    167 H75        -7.0540    1.2040   -5.0200 h1        1 MOL      0.076107
    168 H76        -5.4880    1.0540   -2.8220 hn        1 MOL      0.203261
    169 Ca1         0.9480   -0.4550    1.0850 Ca        1 MOL      1.629416
    170 O24         2.1030   -0.3640   -1.1480 oh        1 MOL     -0.871248
    171 H77         3.0240   -0.1670   -1.3570 ho        1 MOL      0.417969
    172 H78         1.7030   -0.5100   -2.0010 ho        1 MOL      0.417969
    173 O25         1.3850    2.2080    0.8810 oh        1 MOL     -0.871248
    174 H79         1.4350    2.7710    1.6580 ho        1 MOL      0.417969
    175 H80         1.9980    2.6020    0.2690 ho        1 MOL      0.417969
    176 O26         2.6850   -2.6220    1.6140 oh        1 MOL     -0.871248
    177 H81         2.4030   -3.4420    1.2010 ho        1 MOL      0.417969
    178 H82         3.5610   -2.8070    1.9520 ho        1 MOL      0.417969
@<TRIPOS>BOND
     1    1    2 1   
     2    1    4 1   
     3    1    5 1   
     4    1    6 1   
     5    2    3 2   
     6    2    7 1   
     7    7    8 1   
     8    7   15 1   
     9    8    9 1   
    10    8   11 1   
    11    8   16 1   
    12    9   10 2   
    13    9   19 1   
    14   11   12 1   
    15   11   17 1   
    16   11   18 1   
    17   12   13 1   
    18   12   14 1   
    19   19   20 1   
    20   19   24 1   
    21   20   21 1   
    22   20   23 1   
    23   20   25 1   
    24   21   22 2   
    25   21   29 1   
    26   23   26 1   
    27   23   27 1   
    28   23   28 1   
    29   29   30 1   
    30   29   37 1   
    31   30   31 1   
    32   30   33 1   
    33   30   38 1   
    34   31   32 2   
    35   31   41 1   
    36   33   34 1   
    37   33   39 1   
    38   33   40 1   
    39   34   35 1   
    40   34   36 1   
    41   41   42 1   
    42   41   45 1   
    43   42   43 1   
    44   42   46 1   
    45   42   47 1   
    46   43   44 2   
    47   43   48 1   
    48   48   49 1   
    49   48   56 1   
    50   49   50 1   
    51   49   52 1   
    52   49   57 1   
    53   50   51 2   
    54   50   62 1   
    55   52   53 1   
    56   52   58 1   
    57   52   59 1   
    58   53   54 1   
    59   53   55 2   
    60   54   60 1   
    61   54   61 1   
    62   62   63 1   
    63   62   66 1   
    64   63   64 1   
    65   63   67 1   
    66   63   68 1   
    67   64   65 2   
    68   64   69 1   
    69   69   70 1   
    70   69   76 1   
    71   70   71 1   
    72   70   73 1   
    73   70   77 1   
    74   71   72 2   
    75   71   83 1   
    76   73   74 1   
    77   73   75 1   
    78   73   78 1   
    79   74   80 1   
    80   74   81 1   
    81   74   82 1   
    82   75   79 1   
    83   83   84 1   
    84   83   91 1   
    85   84   85 1   
    86   84   87 1   
    87   84   92 1   
    88   85   86 2   
    89   85  102 1   
    90   87   88 1   
    91   87   89 1   
    92   87   93 1   
    93   88   90 1   
    94   88   94 1   
    95   88   95 1   
    96   89   96 1   
    97   89   97 1   
    98   89   98 1   
    99   90   99 1   
   100   90  100 1   
   101   90  101 1   
   102  102  103 1   
   103  102  110 1   
   104  103  104 1   
   105  103  106 1   
   106  103  111 1   
   107  104  105 2   
   108  104  114 1   
   109  106  107 1   
   110  106  112 1   
   111  106  113 1   
   112  107  108 1   
   113  107  109 1   
   114  114  115 1   
   115  114  125 1   
   116  115  116 1   
   117  115  118 1   
   118  115  126 1   
   119  116  117 2   
   120  116  134 1   
   121  118  119 1   
   122  118  127 1   
   123  118  128 1   
   124  119  120 ar  
   125  119  121 ar  
   126  120  122 ar  
   127  120  129 1   
   128  121  123 ar  
   129  121  130 1   
   130  122  124 ar  
   131  122  131 1   
   132  123  124 ar  
   133  123  132 1   
   134  124  133 1   
   135  134  135 1   
   136  134  140 1   
   137  135  136 1   
   138  135  138 1   
   139  135  141 1   
   140  136  137 2   
   141  136  148 1   
   142  138  139 1   
   143  138  142 1   
   144  138  143 1   
   145  139  140 1   
   146  139  144 1   
   147  139  145 1   
   148  140  146 1   
   149  140  147 1   
   150  148  149 1   
   151  148  157 1   
   152  149  150 1   
   153  149  152 1   
   154  149  158 1   
   155  150  151 2   
   156  150  163 1   
   157  152  153 1   
   158  152  159 1   
   159  152  160 1   
   160  153  154 1   
   161  153  161 1   
   162  153  162 1   
   163  154  155 1   
   164  154  156 1   
   165  163  164 1   
   166  163  168 1   
   167  164  165 1   
   168  164  166 1   
   169  164  167 1   
   170  170  171 1   
   171  170  172 1   
   172  173  174 1   
   173  173  175 1   
   174  176  177 1   
   175  176  178 1   
@<TRIPOS>SUBSTRUCTURE
     1 MOL         1 TEMP              0 ****  ****    0 ROOT
