@<TRIPOS>MOLECULE
MOL
  192   187     1     0     0
SMALL
resp


@<TRIPOS>ATOM
      1 C1         -3.4680    7.5570    1.4330 c3        1 MOL     -0.315544
      2 C2         -3.4150    5.9800    1.6110 c         1 MOL      0.580951
      3 O1         -2.8330    5.4460    2.5830 o         1 MOL     -0.542412
      4 H1         -2.9230    8.0320    2.2490 hc        1 MOL      0.086536
      5 H2         -3.0110    7.8320    0.4830 hc        1 MOL      0.086536
      6 H3         -4.5060    7.8900    1.4470 hc        1 MOL      0.086536
      7 N1         -3.9090    5.3010    0.5690 n         1 MOL     -0.436111
      8 C3         -3.8410    3.8370    0.3900 c3        1 MOL     -0.015719
      9 C4         -2.4200    3.2070    0.4540 c         1 MOL      0.290823
     10 O2         -2.1610    2.0720    0.9380 o         1 MOL     -0.482870
     11 C5         -4.5740    3.2990   -0.8360 c3        1 MOL     -0.170792
     12 C6         -4.2700    4.1090   -2.1570 c         1 MOL      0.723852
     13 O3         -4.1610    3.4580   -3.2290 o         1 MOL     -0.708771
     14 O4         -4.2580    5.3760   -2.1910 o         1 MOL     -0.708771
     15 H4         -4.2750    5.9330   -0.1340 hn        1 MOL      0.274698
     16 H5         -4.3490    3.3930    1.2630 h1        1 MOL      0.104611
     17 H6         -5.6610    3.3100   -0.7830 hc        1 MOL      0.078743
     18 H7         -4.3230    2.2460   -0.9560 hc        1 MOL      0.078743
     19 N2         -1.5100    3.8510   -0.2360 n         1 MOL     -0.160357
     20 C7         -0.1550    3.3210   -0.5190 c3        1 MOL     -0.027394
     21 C8          0.6980    3.4750    0.6840 c         1 MOL      0.615886
     22 O5          0.8530    4.5530    1.2750 o         1 MOL     -0.582207
     23 C9          0.3810    4.1000   -1.7580 c3        1 MOL     -0.262156
     24 C10        -0.3820    3.5010   -2.8840 c3        1 MOL      0.192102
     25 C11        -0.2240    4.3210   -4.1360 c3        1 MOL      0.008801
     26 C12        -0.9730    5.6810   -4.0950 c3        1 MOL     -0.089268
     27 N3         -2.4800    5.5110   -4.3100 n4        1 MOL     -0.248380
     28 H8         -1.7290    4.8080   -0.4830 hn        1 MOL      0.225072
     29 H9         -0.2110    2.2430   -0.6210 h1        1 MOL      0.236452
     30 H10         1.4030    3.7390   -1.8290 hc        1 MOL      0.103510
     31 H11         0.2430    5.1600   -1.5740 hc        1 MOL      0.103510
     32 H12        -1.4560    3.5060   -2.6710 hc        1 MOL     -0.065408
     33 H13        -0.0900    2.4900   -3.1670 hc        1 MOL     -0.065408
     34 H14        -0.4730    3.7860   -5.0470 hc        1 MOL      0.032093
     35 H15         0.8340    4.5490   -4.2530 hc        1 MOL      0.032093
     36 H16        -0.5800    6.2490   -4.9440 hx        1 MOL      0.092045
     37 H17        -0.8090    6.2820   -3.2060 hx        1 MOL      0.092045
     38 H18        -2.9170    4.8050   -3.7310 hn        1 MOL      0.277184
     39 H19        -2.9670    6.3590   -4.0710 hn        1 MOL      0.277184
     40 H20        -2.8260    5.2620   -5.2240 hn        1 MOL      0.277184
     41 N4          1.4800    2.4870    1.0910 n         1 MOL     -0.556688
     42 C13         1.9430    1.2400    0.4150 c3        1 MOL     -0.084335
     43 C14         2.4620    1.4190   -1.0710 c         1 MOL      0.487655
     44 O6          1.7800    1.0030   -2.0370 o         1 MOL     -0.557612
     45 C15         0.9270    0.0070    0.5790 c3        1 MOL     -0.247458
     46 C16         0.2610   -0.1300    1.9190 c         1 MOL      1.065183
     47 O7         -0.8510   -0.5670    2.0790 o         1 MOL     -0.899281
     48 O8          0.9300    0.0650    2.8940 o         1 MOL     -0.899281
     49 H21         1.9590    2.7750    1.9290 hn        1 MOL      0.330150
     50 H22         2.7860    0.9070    1.0090 h1        1 MOL      0.168412
     51 H23         1.4450   -0.9320    0.3890 hc        1 MOL      0.042143
     52 H24         0.1530    0.0650   -0.1880 hc        1 MOL      0.042143
     53 N5          3.5310    2.1350   -1.3900 n         1 MOL     -0.309081
     54 C17         4.5790    2.5340   -0.4370 c3        1 MOL     -0.021713
     55 C18         5.9120    3.0840   -1.0590 c         1 MOL      0.481987
     56 O9          5.9720    3.6240   -2.1820 o         1 MOL     -0.530097
     57 H25         3.8000    2.2180   -2.3590 hn        1 MOL      0.256601
     58 H26         4.7550    1.5800    0.0600 h1        1 MOL      0.062951
     59 H27         4.1780    3.3110    0.2170 h1        1 MOL      0.062951
     60 N6          7.0420    3.0500   -0.3170 n         1 MOL     -0.351882
     61 C19         7.1910    2.4530    1.0570 c3        1 MOL     -0.102834
     62 C20         7.6190    1.0070    1.1680 c         1 MOL      0.507908
     63 O10         8.1920    0.4230    0.2530 o         1 MOL     -0.456132
     64 C21         8.2380    3.2750    1.8460 c3        1 MOL     -0.055294
     65 C22         9.5520    3.5650    1.0690 c         1 MOL      0.713124
     66 O11         9.6250    4.6030    0.3370 o         1 MOL     -0.676556
     67 O12        10.4940    2.7970    1.3260 o         1 MOL     -0.676556
     68 H28         7.8370    3.5000   -0.7260 hn        1 MOL      0.280850
     69 H29         6.2560    2.6560    1.5850 h1        1 MOL      0.036175
     70 H30         8.5230    2.7290    2.7430 hc        1 MOL     -0.007765
     71 H31         7.9150    4.2560    2.2000 hc        1 MOL     -0.007765
     72 N7          7.4720    0.4090    2.3700 n         1 MOL     -0.165007
     73 C23         8.0770   -0.8860    2.7740 c3        1 MOL     -0.380939
     74 C24         7.3220   -2.1130    2.2120 c         1 MOL      0.594257
     75 O13         7.8920   -3.0850    1.8050 o         1 MOL     -0.527707
     76 H32         7.0630    0.9640    3.1150 hn        1 MOL      0.210242
     77 H33         8.0580   -0.9280    3.8620 h1        1 MOL      0.172056
     78 H34         9.1120   -0.9320    2.4210 h1        1 MOL      0.172056
     79 N8          6.0010   -1.9620    2.0020 n         1 MOL     -0.391571
     80 C25         5.1490   -2.8330    1.1200 c3        1 MOL      0.091699
     81 C26         4.4610   -2.0180    0.0050 c         1 MOL      0.558813
     82 O14         4.2140   -0.8850    0.2820 o         1 MOL     -0.494636
     83 C27         4.0860   -3.5850    1.9450 c3        1 MOL      0.263537
     84 C28         4.6730   -4.2590    3.1680 c3        1 MOL     -0.391915
     85 O15         3.2620   -4.5640    1.2150 oh        1 MOL     -0.657982
     86 H35         5.6550   -1.0350    2.1850 hn        1 MOL      0.147378
     87 H36         5.7790   -3.5340    0.5750 h1        1 MOL      0.058105
     88 H37         3.4120   -2.8330    2.3380 h1        1 MOL      0.057658
     89 H38         3.3760   -5.4670    1.5290 ho        1 MOL      0.396921
     90 H39         3.8730   -4.4470    3.8970 hc        1 MOL      0.104320
     91 H40         5.3020   -5.0980    2.8880 hc        1 MOL      0.104320
     92 H41         5.4120   -3.6630    3.6980 hc        1 MOL      0.104320
     93 N9          4.2010   -2.5760   -1.1800 n         1 MOL     -0.414890
     94 C29         3.5930   -1.9450   -2.3270 c3        1 MOL     -0.029594
     95 C30         2.3800   -2.6130   -2.9690 c         1 MOL      0.288682
     96 O16         1.8000   -2.0480   -3.9300 o         1 MOL     -0.465535
     97 C31         4.6260   -1.6590   -3.4450 c3        1 MOL      0.168570
     98 C32         5.3400   -2.8290   -4.0810 c3        1 MOL      0.064111
     99 C33         5.7500   -0.6710   -2.8540 c3        1 MOL     -0.262008
    100 C34         4.4100   -3.7450   -4.8820 c3        1 MOL     -0.161817
    101 H42         4.4140   -3.5600   -1.2360 hn        1 MOL      0.247200
    102 H43         3.2380   -0.9570   -2.0470 h1        1 MOL      0.119694
    103 H44         4.1040   -1.1340   -4.2400 hc        1 MOL      0.034345
    104 H45         5.9840   -3.3860   -3.3940 hc        1 MOL     -0.009222
    105 H46         6.0240   -2.3480   -4.7750 hc        1 MOL     -0.009222
    106 H47         6.5200   -1.1320   -2.2420 hc        1 MOL      0.066846
    107 H48         6.2840   -0.1320   -3.6430 hc        1 MOL      0.066846
    108 H49         5.3140    0.0540   -2.1610 hc        1 MOL      0.066846
    109 H50         3.8160   -4.4530   -4.3020 hc        1 MOL      0.037140
    110 H51         3.7360   -3.1450   -5.4950 hc        1 MOL      0.037140
    111 H52         4.9320   -4.4380   -5.5300 hc        1 MOL      0.037140
    112 N10         1.8450   -3.6640   -2.3390 n         1 MOL      0.021024
    113 C35         0.6490   -4.3140   -2.8810 c3        1 MOL     -0.654228
    114 C36        -0.7040   -3.6720   -2.6970 c         1 MOL      0.684741
    115 O17        -1.7100   -4.0280   -3.3070 o         1 MOL     -0.556517
    116 C37         0.6020   -5.7720   -2.4780 c3        1 MOL      0.524266
    117 C38         0.4350   -5.9240   -0.9650 c3        1 MOL     -0.271381
    118 O18         1.7840   -6.4410   -2.8320 oh        1 MOL     -0.625298
    119 H53         2.2350   -4.0130   -1.4730 hn        1 MOL      0.145757
    120 H54         0.7990   -4.3690   -3.9660 h1        1 MOL      0.204730
    121 H55        -0.2760   -6.2330   -2.9340 h1        1 MOL      0.050660
    122 H56         2.4690   -5.8670   -2.4850 ho        1 MOL      0.364688
    123 H57        -0.4740   -5.4180   -0.6300 hc        1 MOL      0.060613
    124 H58         0.4660   -6.9790   -0.7220 hc        1 MOL      0.060613
    125 H59         1.2290   -5.3730   -0.4470 hc        1 MOL      0.060613
    126 N11        -0.7720   -2.8020   -1.6910 n         1 MOL     -0.410192
    127 C39        -2.0090   -1.9670   -1.4430 c3        1 MOL     -0.057845
    128 C40        -3.1340   -2.9590   -1.0160 c         1 MOL      0.650946
    129 O19        -3.0290   -4.1510   -0.8240 o         1 MOL     -0.504188
    130 C41        -2.3500   -1.1050   -2.6890 c3        1 MOL      0.272412
    131 C42        -1.3000   -0.1250   -2.9830 c3        1 MOL     -0.275425
    132 O20        -3.5420   -0.3350   -2.5660 oh        1 MOL     -0.544206
    133 H60        -0.0600   -2.7500   -0.9820 hn        1 MOL      0.294226
    134 H61        -1.9420   -1.4230   -0.5040 h1        1 MOL      0.167741
    135 H62        -2.4440   -1.7400   -3.5760 h1        1 MOL      0.020041
    136 H63        -3.6310    0.1490   -3.3940 ho        1 MOL      0.354343
    137 H64        -1.2250    0.5520   -2.1360 hc        1 MOL      0.085350
    138 H65        -0.3850   -0.6740   -3.2040 hc        1 MOL      0.085350
    139 H66        -1.5830    0.4780   -3.8490 hc        1 MOL      0.085350
    140 N12        -4.2470   -2.3000   -0.8020 n         1 MOL     -0.605332
    141 C43        -5.5290   -2.9120   -0.7130 c3        1 MOL      0.073698
    142 C44        -6.2420   -2.5180    0.5820 c         1 MOL      0.537592
    143 O21        -7.3220   -3.0000    0.7340 o         1 MOL     -0.563282
    144 C45        -6.4160   -2.4640   -1.8870 c3        1 MOL     -0.150303
    145 C46        -6.7130   -0.9590   -1.8450 c3        1 MOL      0.096747
    146 C47        -7.0380   -0.4390   -3.2300 c3        1 MOL     -0.021813
    147 C48        -8.3310   -0.9740   -3.9210 c3        1 MOL     -0.085320
    148 N13        -8.1240   -2.3840   -4.4010 n4        1 MOL     -0.279162
    149 H67        -4.2530   -1.2910   -0.8320 hn        1 MOL      0.257306
    150 H68        -5.5070   -4.0000   -0.7650 h1        1 MOL      0.116152
    151 H69        -7.3300   -3.0600   -1.8240 hc        1 MOL      0.043404
    152 H70        -5.9190   -2.7830   -2.7980 hc        1 MOL      0.043404
    153 H71        -5.8840   -0.3330   -1.5080 hc        1 MOL      0.015456
    154 H72        -7.5970   -0.8170   -1.2250 hc        1 MOL      0.015456
    155 H73        -6.1980   -0.7420   -3.8600 hc        1 MOL      0.036171
    156 H74        -7.0930    0.6490   -3.1780 hc        1 MOL      0.036171
    157 H75        -8.7610   -0.4430   -4.7680 hx        1 MOL      0.111581
    158 H76        -9.0490   -0.8440   -3.1110 hx        1 MOL      0.111581
    159 H77        -8.9490   -2.6060   -4.9280 hn        1 MOL      0.281009
    160 H78        -7.3590   -2.5610   -5.0430 hn        1 MOL      0.281009
    161 H79        -8.0270   -3.0460   -3.6420 hn        1 MOL      0.281009
    162 N14        -5.6360   -1.7200    1.4820 n         1 MOL     -0.175811
    163 C49        -6.2530   -1.0800    2.6610 c3        1 MOL     -0.345197
    164 C50        -6.7950    0.3430    2.5140 c         1 MOL      0.429823
    165 O22        -6.1560    1.2520    2.0010 o         1 MOL     -0.506106
    166 C51        -5.3770   -1.0480    3.9360 c3        1 MOL      0.194544
    167 C52        -5.0950   -2.5040    4.5120 c3        1 MOL     -0.248007
    168 C53        -3.7460   -3.0420    4.0360 c         1 MOL      0.460697
    169 O23        -2.7440   -2.2580    4.0480 o         1 MOL     -0.604236
    170 O24        -3.7240   -4.2660    3.7590 o         1 MOL     -0.604236
    171 H80        -4.6890   -1.3580    1.3570 hn        1 MOL      0.333031
    172 H81        -7.0240   -1.7790    3.0060 h1        1 MOL      0.117476
    173 H82        -5.8870   -0.4700    4.6990 hc        1 MOL     -0.023352
    174 H83        -4.4450   -0.5100    3.7560 hc        1 MOL     -0.023352
    175 H84        -5.8710   -3.1630    4.1430 hc        1 MOL      0.070806
    176 H85        -5.1580   -2.4390    5.5990 hc        1 MOL      0.070806
    177 N15        -8.0380    0.5370    2.8720 n         1 MOL     -0.209535
    178 C54        -8.8330    1.7420    2.6280 c3        1 MOL     -0.258017
    179 H86        -9.8920    1.5070    2.7340 h1        1 MOL      0.116991
    180 H87        -8.5580    2.5120    3.3490 h1        1 MOL      0.116991
    181 H88        -8.6430    2.1050    1.6180 h1        1 MOL      0.116991
    182 H89        -8.4540   -0.2400    3.3780 hn        1 MOL      0.240134
    183 Ca1        -0.7170   -0.6990    4.7900 Ca        1 MOL      1.811889
    184 O25         0.3060   -3.3430    4.0090 oh        1 MOL     -0.989660
    185 H90         0.1710   -3.7430    3.1550 ho        1 MOL      0.479702
    186 H91         0.6600   -4.0500    4.5440 ho        1 MOL      0.479702
    187 O26        -2.2490    0.2990    6.9040 oh        1 MOL     -0.989660
    188 H92        -1.9980    0.6440    7.7620 ho        1 MOL      0.479702
    189 H93        -3.1800    0.0950    6.9850 ho        1 MOL      0.479702
    190 O27        -2.3090    1.1030    3.7750 oh        1 MOL     -0.989660
    191 H94        -2.9850    1.6530    4.1710 ho        1 MOL      0.479702
    192 H95        -2.1280    1.5180    2.9350 ho        1 MOL      0.479702
@<TRIPOS>BOND
     1    1    2 1   
     2    1    4 1   
     3    1    5 1   
     4    1    6 1   
     5    2    3 2   
     6    2    7 1   
     7    7    8 1   
     8    7   15 1   
     9    8    9 1   
    10    8   11 1   
    11    8   16 1   
    12    9   10 2   
    13    9   19 1   
    14   11   12 1   
    15   11   17 1   
    16   11   18 1   
    17   12   13 1   
    18   12   14 1   
    19   19   20 1   
    20   19   28 1   
    21   20   21 1   
    22   20   23 1   
    23   20   29 1   
    24   21   22 2   
    25   21   41 1   
    26   23   24 1   
    27   23   30 1   
    28   23   31 1   
    29   24   25 1   
    30   24   32 1   
    31   24   33 1   
    32   25   26 1   
    33   25   34 1   
    34   25   35 1   
    35   26   27 1   
    36   26   36 1   
    37   26   37 1   
    38   27   38 1   
    39   27   39 1   
    40   27   40 1   
    41   41   42 1   
    42   41   49 1   
    43   42   43 1   
    44   42   45 1   
    45   42   50 1   
    46   43   44 2   
    47   43   53 1   
    48   45   46 1   
    49   45   51 1   
    50   45   52 1   
    51   46   47 1   
    52   46   48 1   
    53   53   54 1   
    54   53   57 1   
    55   54   55 1   
    56   54   58 1   
    57   54   59 1   
    58   55   56 2   
    59   55   60 1   
    60   60   61 1   
    61   60   68 1   
    62   61   62 1   
    63   61   64 1   
    64   61   69 1   
    65   62   63 2   
    66   62   72 1   
    67   64   65 1   
    68   64   70 1   
    69   64   71 1   
    70   65   66 1   
    71   65   67 1   
    72   72   73 1   
    73   72   76 1   
    74   73   74 1   
    75   73   77 1   
    76   73   78 1   
    77   74   75 2   
    78   74   79 1   
    79   79   80 1   
    80   79   86 1   
    81   80   81 1   
    82   80   83 1   
    83   80   87 1   
    84   81   82 2   
    85   81   93 1   
    86   83   84 1   
    87   83   85 1   
    88   83   88 1   
    89   84   90 1   
    90   84   91 1   
    91   84   92 1   
    92   85   89 1   
    93   93   94 1   
    94   93  101 1   
    95   94   95 1   
    96   94   97 1   
    97   94  102 1   
    98   95   96 2   
    99   95  112 1   
   100   97   98 1   
   101   97   99 1   
   102   97  103 1   
   103   98  100 1   
   104   98  104 1   
   105   98  105 1   
   106   99  106 1   
   107   99  107 1   
   108   99  108 1   
   109  100  109 1   
   110  100  110 1   
   111  100  111 1   
   112  112  113 1   
   113  112  119 1   
   114  113  114 1   
   115  113  116 1   
   116  113  120 1   
   117  114  115 2   
   118  114  126 1   
   119  116  117 1   
   120  116  118 1   
   121  116  121 1   
   122  117  123 1   
   123  117  124 1   
   124  117  125 1   
   125  118  122 1   
   126  126  127 1   
   127  126  133 1   
   128  127  128 1   
   129  127  130 1   
   130  127  134 1   
   131  128  129 2   
   132  128  140 1   
   133  130  131 1   
   134  130  132 1   
   135  130  135 1   
   136  131  137 1   
   137  131  138 1   
   138  131  139 1   
   139  132  136 1   
   140  140  141 1   
   141  140  149 1   
   142  141  142 1   
   143  141  144 1   
   144  141  150 1   
   145  142  143 2   
   146  142  162 1   
   147  144  145 1   
   148  144  151 1   
   149  144  152 1   
   150  145  146 1   
   151  145  153 1   
   152  145  154 1   
   153  146  147 1   
   154  146  155 1   
   155  146  156 1   
   156  147  148 1   
   157  147  157 1   
   158  147  158 1   
   159  148  159 1   
   160  148  160 1   
   161  148  161 1   
   162  162  163 1   
   163  162  171 1   
   164  163  164 1   
   165  163  166 1   
   166  163  172 1   
   167  164  165 2   
   168  164  177 1   
   169  166  167 1   
   170  166  173 1   
   171  166  174 1   
   172  167  168 1   
   173  167  175 1   
   174  167  176 1   
   175  168  169 1   
   176  168  170 1   
   177  177  178 1   
   178  177  182 1   
   179  178  179 1   
   180  178  180 1   
   181  178  181 1   
   182  184  185 1   
   183  184  186 1   
   184  187  188 1   
   185  187  189 1   
   186  190  191 1   
   187  190  192 1   
@<TRIPOS>SUBSTRUCTURE
     1 MOL         1 TEMP              0 ****  ****    0 ROOT
