@<TRIPOS>MOLECULE
MOL
  182   178     1     0     0
SMALL
resp


@<TRIPOS>ATOM
      1 C1         -1.5490   -3.9210    5.5620 c3        1 MOL     -0.300167
      2 C2         -1.2320   -3.4600    4.1740 c         1 MOL      0.911944
      3 O1         -2.1030   -3.5830    3.3510 o         1 MOL     -0.604181
      4 H1         -0.6320   -3.9630    6.1490 hc        1 MOL      0.067904
      5 H2         -2.2450   -3.2230    6.0260 hc        1 MOL      0.067904
      6 H3         -2.0000   -4.9130    5.5230 hc        1 MOL      0.067904
      7 N1          0.0650   -3.1060    3.8940 n         1 MOL     -0.698714
      8 C3          0.6680   -3.1410    2.5320 c3        1 MOL     -0.024298
      9 C4          0.8380   -4.5590    1.8550 c         1 MOL      0.567664
     10 O2          1.0460   -5.5560    2.5050 o         1 MOL     -0.536832
     11 C5          2.0470   -2.4470    2.6770 c3        1 MOL      0.213095
     12 C6          2.5120   -1.5900    1.4770 c         1 MOL      0.521490
     13 O3          3.2250   -0.5720    1.5690 o         1 MOL     -0.706813
     14 O4          2.2060   -2.0670    0.3800 o         1 MOL     -0.706813
     15 H4          0.7730   -2.8120    4.5530 hn        1 MOL      0.337732
     16 H5          0.0680   -2.5440    1.8540 h1        1 MOL      0.012182
     17 H6          2.7550   -3.2300    2.9420 hc        1 MOL     -0.024642
     18 H7          2.1040   -1.7880    3.5500 hc        1 MOL     -0.024642
     19 N2          0.6340   -4.6580    0.5540 n         1 MOL     -0.363235
     20 C7          0.9170   -5.8610   -0.2470 c3        1 MOL      0.030039
     21 C8          2.1300   -5.7110   -1.1800 c         1 MOL      0.521711
     22 O5          2.5090   -6.6670   -1.8530 o         1 MOL     -0.555329
     23 C9         -0.2360   -6.3520   -1.0980 c3        1 MOL     -0.111609
     24 C10        -0.6030   -5.3800   -2.2660 c3        1 MOL      0.033518
     25 C11        -1.9260   -5.7510   -2.9800 c3        1 MOL     -0.093203
     26 C12        -1.5970   -7.0120   -3.7940 c3        1 MOL      0.074857
     27 N3         -2.8360   -7.6760   -4.1850 n4        1 MOL     -0.385433
     28 H8          0.2270   -3.8380    0.1330 hn        1 MOL      0.276491
     29 H9          1.1280   -6.6560    0.4610 h1        1 MOL      0.110258
     30 H10        -1.1330   -6.3260   -0.4920 hc        1 MOL      0.039505
     31 H11        -0.1040   -7.3680   -1.4700 hc        1 MOL      0.039505
     32 H12         0.1400   -5.5330   -3.0500 hc        1 MOL      0.016830
     33 H13        -0.5540   -4.3610   -1.8950 hc        1 MOL      0.016830
     34 H14        -2.2740   -5.0240   -3.7140 hc        1 MOL      0.052504
     35 H15        -2.7500   -5.8910   -2.2730 hc        1 MOL      0.052504
     36 H16        -1.1030   -7.8070   -3.2430 hx        1 MOL      0.092458
     37 H17        -0.9350   -6.8470   -4.6410 hx        1 MOL      0.092458
     38 H18        -3.5570   -6.9730   -4.2950 hn        1 MOL      0.314044
     39 H19        -2.6200   -8.1900   -5.0290 hn        1 MOL      0.314044
     40 H20        -3.1820   -8.2840   -3.4660 hn        1 MOL      0.314044
     41 N4          2.8100   -4.5160   -1.1950 n         1 MOL     -0.432564
     42 C13         4.0680   -4.1920   -1.9500 c3        1 MOL      0.208038
     43 C14         5.2780   -3.6630   -1.0750 c         1 MOL      0.305200
     44 O6          6.4830   -3.7380   -1.4410 o         1 MOL     -0.519089
     45 C15         3.8620   -3.2540   -3.1190 c3        1 MOL     -0.464882
     46 C16         3.2090   -1.9850   -2.5780 c         1 MOL      0.969945
     47 O7          3.9470   -1.2130   -1.9640 o         1 MOL     -0.801110
     48 O8          2.0670   -1.6300   -2.9210 o         1 MOL     -0.801110
     49 H21         2.4200   -3.7800   -0.6180 hn        1 MOL      0.183623
     50 H22         4.4770   -5.1210   -2.3530 h1        1 MOL      0.092538
     51 H23         3.2300   -3.7700   -3.8440 hc        1 MOL      0.112048
     52 H24         4.8320   -3.0720   -3.5890 hc        1 MOL      0.112048
     53 N5          4.8990   -3.2870    0.1640 n         1 MOL     -0.216283
     54 C17         5.8620   -2.9250    1.2740 c3        1 MOL     -0.112969
     55 C18         6.5110   -1.5370    1.0810 c         1 MOL      0.508747
     56 O9          7.3890   -1.2410    1.8960 o         1 MOL     -0.540684
     57 H25         3.9080   -3.2320    0.3580 hn        1 MOL      0.173977
     58 H26         6.7250   -3.5970    1.3620 h1        1 MOL      0.103404
     59 H27         5.4870   -3.0140    2.2940 h1        1 MOL      0.103404
     60 N6          6.2160   -0.7910   -0.0370 n         1 MOL     -0.245914
     61 C19         6.9070    0.3870   -0.4560 c3        1 MOL     -0.055859
     62 C20         5.7690    1.4530   -0.7710 c         1 MOL      0.716486
     63 O10         4.5820    1.3100   -0.5010 o         1 MOL     -0.544777
     64 C21         7.8000    0.0550   -1.6900 c3        1 MOL     -0.408156
     65 C22         8.9750   -0.8740   -1.3540 c         1 MOL      0.750909
     66 N7          9.0560   -2.0080   -1.9620 n         1 MOL     -0.757813
     67 O11         9.9880   -0.4810   -0.7460 o         1 MOL     -0.590222
     68 H28         5.5650   -1.2160   -0.6820 hn        1 MOL      0.352329
     69 H29         7.4900    0.7430    0.3920 h1        1 MOL      0.098321
     70 H30         8.3140    0.9800   -1.9680 hc        1 MOL      0.097890
     71 H31         7.2270   -0.3750   -2.5110 hc        1 MOL      0.097890
     72 H32         8.3580   -2.3370   -2.6220 hn        1 MOL      0.356323
     73 H33         9.9170   -2.5310   -1.8760 hn        1 MOL      0.356323
     74 N8          6.2310    2.6360   -1.1840 n         1 MOL     -0.620675
     75 C23         5.4950    3.8660   -1.3060 c3        1 MOL      0.118954
     76 C24         4.4760    4.2250   -0.1870 c         1 MOL      0.441003
     77 O12         4.7840    4.0160    1.0050 o         1 MOL     -0.455170
     78 H34         7.2320    2.7740   -1.1460 hn        1 MOL      0.362992
     79 H35         4.8800    3.9670   -2.1910 h1        1 MOL      0.030312
     80 H36         6.2540    4.6370   -1.4210 h1        1 MOL      0.030312
     81 N9          3.3290    4.7690   -0.6570 n         1 MOL     -0.517948
     82 C25         2.1500    4.9340    0.2310 c3        1 MOL      0.368656
     83 C26         1.6980    3.6640    0.9030 c         1 MOL      0.349114
     84 O13         1.9030    2.5550    0.3850 o         1 MOL     -0.458488
     85 C27         1.0980    5.5590   -0.6230 c3        1 MOL     -0.175133
     86 C28         1.3000    6.9410   -1.1440 ca        1 MOL      0.165607
     87 C29         1.4290    8.0380   -0.2970 ca        1 MOL     -0.232018
     88 C30         1.3420    7.1430   -2.5760 ca        1 MOL     -0.232018
     89 C31         1.6580    9.3490   -0.7960 ca        1 MOL     -0.216885
     90 C32         1.5840    8.4600   -3.0490 ca        1 MOL     -0.216885
     91 C33         1.7520    9.5640   -2.1660 ca        1 MOL      0.322966
     92 O14         1.9860   10.8230   -2.7120 oh        1 MOL     -0.489349
     93 H37         3.3320    5.3070   -1.5160 hn        1 MOL      0.255310
     94 H38         2.4100    5.5810    1.0670 h1        1 MOL     -0.013667
     95 H39         0.2080    5.5840    0.0070 hc        1 MOL      0.031495
     96 H40         0.9280    4.8870   -1.4730 hc        1 MOL      0.031495
     97 H41         1.1720    7.9360    0.7530 ha        1 MOL      0.147597
     98 H42         1.1930    6.3040   -3.2270 ha        1 MOL      0.147597
     99 H43         1.8150   10.1390   -0.0740 ha        1 MOL      0.156982
    100 H44         1.5670    8.5860   -4.1170 ha        1 MOL      0.156982
    101 H45         1.9490   10.8800   -3.6680 ho        1 MOL      0.368702
    102 N10         0.9550    3.7690    1.9690 n         1 MOL     -0.382106
    103 C34         0.6330    2.6950    2.8930 c3        1 MOL      0.012335
    104 C35        -0.1420    1.5150    2.3310 c         1 MOL      0.306970
    105 O15         0.3820    0.6110    1.6420 o         1 MOL     -0.394841
    106 C36         1.8180    2.3460    3.8290 c3        1 MOL      0.204307
    107 C37         1.3830    1.2600    4.8400 c3        1 MOL      0.214906
    108 C38         2.3480    3.6630    4.5030 c3        1 MOL     -0.477382
    109 C39         2.3820    1.0130    6.0230 c3        1 MOL     -0.023994
    110 H46         0.7830    4.7180    2.2540 hn        1 MOL      0.275868
    111 H47        -0.0760    3.1910    3.5620 h1        1 MOL      0.046357
    112 H48         2.6130    1.8170    3.3030 hc        1 MOL      0.064024
    113 H49         1.1820    0.2910    4.3790 hc        1 MOL     -0.103981
    114 H50         0.4870    1.6240    5.3410 hc        1 MOL     -0.103981
    115 H51         1.5230    4.3430    4.7490 hc        1 MOL      0.118597
    116 H52         2.9380    3.3760    5.3670 hc        1 MOL      0.118597
    117 H53         3.0510    4.1120    3.8040 hc        1 MOL      0.118597
    118 H54         3.3230    0.6980    5.5760 hc        1 MOL      0.006657
    119 H55         2.5460    1.8340    6.7190 hc        1 MOL      0.006657
    120 H56         2.0550    0.1780    6.6660 hc        1 MOL      0.006657
    121 N11        -1.4210    1.3840    2.6880 n         1 MOL     -0.315105
    122 C40        -2.1710    0.1650    2.5680 c3        1 MOL     -0.150192
    123 C41        -3.3380    0.1910    1.5970 c         1 MOL      0.363749
    124 O16        -4.0310   -0.8210    1.3850 o         1 MOL     -0.486554
    125 C42        -2.7740   -0.2560    3.9260 c3        1 MOL      0.242376
    126 O17        -1.7920   -0.4150    4.8260 oh        1 MOL     -0.620441
    127 H57        -1.8180    2.1960    3.1230 hn        1 MOL      0.255811
    128 H58        -1.5630   -0.6540    2.1960 h1        1 MOL      0.233494
    129 H59        -3.3720   -1.1490    3.7620 h1        1 MOL      0.033893
    130 H60        -3.3840    0.5430    4.3480 h1        1 MOL      0.033893
    131 H61        -1.6220    0.4610    5.1790 ho        1 MOL      0.400566
    132 N12        -3.5100    1.3370    0.9040 n         1 MOL     -0.298839
    133 C43        -4.4450    1.4640   -0.1430 c3        1 MOL      0.004910
    134 C44        -4.0290    0.6420   -1.4470 c         1 MOL      0.737878
    135 O18        -2.9210    0.9220   -1.8990 o         1 MOL     -0.660887
    136 C45        -4.5260    2.9740   -0.6510 c3        1 MOL     -0.413321
    137 H62        -2.9510    2.1510    1.1080 hn        1 MOL      0.267257
    138 H63        -5.4500    1.1810    0.1510 h1        1 MOL      0.091349
    139 H64        -3.5560    3.3090   -1.0050 hc        1 MOL      0.123946
    140 H65        -5.3050    3.1380   -1.4050 hc        1 MOL      0.123946
    141 H66        -4.6390    3.6620    0.1870 hc        1 MOL      0.123946
    142 N13        -4.8470   -0.3070   -1.9300 n         1 MOL     -0.663162
    143 C46        -6.2100   -0.6160   -1.4330 c3        1 MOL      0.135142
    144 C47        -7.1990    0.5080   -1.7540 c         1 MOL      0.888793
    145 O19        -7.0010    1.3070   -2.6170 o         1 MOL     -0.605371
    146 C48        -6.6030   -2.0030   -1.9730 c3        1 MOL     -0.162919
    147 H67        -4.5380   -0.8140   -2.7410 hn        1 MOL      0.336141
    148 H68        -6.1410   -0.6960   -0.3520 h1        1 MOL      0.119558
    149 H69        -5.8290   -2.7610   -1.8310 hc        1 MOL      0.044283
    150 H70        -7.5350   -2.3950   -1.5910 hc        1 MOL      0.044283
    151 H71        -6.9040   -1.8500   -3.0080 hc        1 MOL      0.044283
    152 N14        -8.2840    0.7350   -0.9730 n         1 MOL     -0.809384
    153 C49        -8.8750   -0.2540   -0.0260 c3        1 MOL     -0.034739
    154 C50        -9.2300    0.3170    1.2780 c         1 MOL      0.540264
    155 O20        -8.9140   -0.1590    2.3520 o         1 MOL     -0.561336
    156 C51       -10.0340   -1.0400   -0.7040 c3        1 MOL      0.162465
    157 C52       -11.3280   -0.3580   -1.1230 c3        1 MOL     -0.406627
    158 C53       -11.0100    0.7650   -2.1920 c         1 MOL      0.792991
    159 O21       -11.1410    0.4570   -3.3870 o         1 MOL     -0.670896
    160 O22       -10.6390    1.8900   -1.9180 o         1 MOL     -0.670896
    161 H72        -8.8830    1.4650   -1.3250 hn        1 MOL      0.375871
    162 H73        -8.1000   -0.9690    0.2710 h1        1 MOL      0.007617
    163 H74       -10.2510   -1.9660   -0.1830 hc        1 MOL      0.001564
    164 H75        -9.5830   -1.3490   -1.6520 hc        1 MOL      0.001564
    165 H76       -11.8160    0.0990   -0.2640 hc        1 MOL      0.080329
    166 H77       -11.9670   -1.1560   -1.5030 hc        1 MOL      0.080329
    167 N15       -10.0340    1.3880    1.1860 n         1 MOL     -0.230984
    168 C54       -10.6540    2.0350    2.3970 c3        1 MOL     -0.174540
    169 H78       -11.6560    2.3850    2.1480 h1        1 MOL      0.087070
    170 H79       -10.7140    1.3080    3.2070 h1        1 MOL      0.087070
    171 H80       -10.0420    2.8810    2.7110 h1        1 MOL      0.087070
    172 H81       -10.3210    1.5630    0.2330 hn        1 MOL      0.179321
    173 Ca1         1.9680    0.2240   -0.8300 Ca        1 MOL      1.809680
    174 O23        -0.3270    1.6870   -1.7250 oh        1 MOL     -0.918249
    175 H82        -1.0420    1.0530   -1.8000 ho        1 MOL      0.440772
    176 H83        -0.6420    2.4620   -2.1840 ho        1 MOL      0.440772
    177 O24        -0.3820   -1.2340   -1.1460 oh        1 MOL     -0.918249
    178 H84        -0.6730   -1.0160   -2.0310 ho        1 MOL      0.440772
    179 H85        -1.1450   -1.6410   -0.7290 ho        1 MOL      0.440772
    180 O25         2.6360    1.6930   -2.9370 oh        1 MOL     -0.918249
    181 H86         3.3520    1.5650   -3.5670 ho        1 MOL      0.440772
    182 H87         2.2540    2.5360   -3.1990 ho        1 MOL      0.440772
@<TRIPOS>BOND
     1    1    2 1   
     2    1    4 1   
     3    1    5 1   
     4    1    6 1   
     5    2    3 2   
     6    2    7 1   
     7    7    8 1   
     8    7   15 1   
     9    8    9 1   
    10    8   11 1   
    11    8   16 1   
    12    9   10 2   
    13    9   19 1   
    14   11   12 1   
    15   11   17 1   
    16   11   18 1   
    17   12   13 1   
    18   12   14 1   
    19   19   20 1   
    20   19   28 1   
    21   20   21 1   
    22   20   23 1   
    23   20   29 1   
    24   21   22 2   
    25   21   41 1   
    26   23   24 1   
    27   23   30 1   
    28   23   31 1   
    29   24   25 1   
    30   24   32 1   
    31   24   33 1   
    32   25   26 1   
    33   25   34 1   
    34   25   35 1   
    35   26   27 1   
    36   26   36 1   
    37   26   37 1   
    38   27   38 1   
    39   27   39 1   
    40   27   40 1   
    41   41   42 1   
    42   41   49 1   
    43   42   43 1   
    44   42   45 1   
    45   42   50 1   
    46   43   44 2   
    47   43   53 1   
    48   45   46 1   
    49   45   51 1   
    50   45   52 1   
    51   46   47 1   
    52   46   48 1   
    53   53   54 1   
    54   53   57 1   
    55   54   55 1   
    56   54   58 1   
    57   54   59 1   
    58   55   56 2   
    59   55   60 1   
    60   60   61 1   
    61   60   68 1   
    62   61   62 1   
    63   61   64 1   
    64   61   69 1   
    65   62   63 2   
    66   62   74 1   
    67   64   65 1   
    68   64   70 1   
    69   64   71 1   
    70   65   66 1   
    71   65   67 2   
    72   66   72 1   
    73   66   73 1   
    74   74   75 1   
    75   74   78 1   
    76   75   76 1   
    77   75   79 1   
    78   75   80 1   
    79   76   77 2   
    80   76   81 1   
    81   81   82 1   
    82   81   93 1   
    83   82   83 1   
    84   82   85 1   
    85   82   94 1   
    86   83   84 2   
    87   83  102 1   
    88   85   86 1   
    89   85   95 1   
    90   85   96 1   
    91   86   87 ar  
    92   86   88 ar  
    93   87   89 ar  
    94   87   97 1   
    95   88   90 ar  
    96   88   98 1   
    97   89   91 ar  
    98   89   99 1   
    99   90   91 ar  
   100   90  100 1   
   101   91   92 1   
   102   92  101 1   
   103  102  103 1   
   104  102  110 1   
   105  103  104 1   
   106  103  106 1   
   107  103  111 1   
   108  104  105 2   
   109  104  121 1   
   110  106  107 1   
   111  106  108 1   
   112  106  112 1   
   113  107  109 1   
   114  107  113 1   
   115  107  114 1   
   116  108  115 1   
   117  108  116 1   
   118  108  117 1   
   119  109  118 1   
   120  109  119 1   
   121  109  120 1   
   122  121  122 1   
   123  121  127 1   
   124  122  123 1   
   125  122  125 1   
   126  122  128 1   
   127  123  124 2   
   128  123  132 1   
   129  125  126 1   
   130  125  129 1   
   131  125  130 1   
   132  126  131 1   
   133  132  133 1   
   134  132  137 1   
   135  133  134 1   
   136  133  136 1   
   137  133  138 1   
   138  134  135 2   
   139  134  142 1   
   140  136  139 1   
   141  136  140 1   
   142  136  141 1   
   143  142  143 1   
   144  142  147 1   
   145  143  144 1   
   146  143  146 1   
   147  143  148 1   
   148  144  145 2   
   149  144  152 1   
   150  146  149 1   
   151  146  150 1   
   152  146  151 1   
   153  152  153 1   
   154  152  161 1   
   155  153  154 1   
   156  153  156 1   
   157  153  162 1   
   158  154  155 2   
   159  154  167 1   
   160  156  157 1   
   161  156  163 1   
   162  156  164 1   
   163  157  158 1   
   164  157  165 1   
   165  157  166 1   
   166  158  159 1   
   167  158  160 1   
   168  167  168 1   
   169  167  172 1   
   170  168  169 1   
   171  168  170 1   
   172  168  171 1   
   173  174  175 1   
   174  174  176 1   
   175  177  178 1   
   176  177  179 1   
   177  180  181 1   
   178  180  182 1   
@<TRIPOS>SUBSTRUCTURE
     1 MOL         1 TEMP              0 ****  ****    0 ROOT
