@<TRIPOS>MOLECULE
MOL
  192   187     1     0     0
SMALL
resp


@<TRIPOS>ATOM
      1 C1         -3.4340    2.4810   -2.4110 c3        1 MOL     -0.080242
      2 C2         -2.2810    3.2890   -1.6740 c         1 MOL      0.597472
      3 O1         -1.2500    2.7450   -1.3400 o         1 MOL     -0.476268
      4 H1         -4.3890    2.6880   -1.9270 hc        1 MOL      0.004425
      5 H2         -3.4820    2.7860   -3.4560 hc        1 MOL      0.004425
      6 H3         -3.2240    1.4120   -2.3530 hc        1 MOL      0.004425
      7 N1         -2.5360    4.5900   -1.3960 n         1 MOL     -0.281668
      8 C3         -1.8170    5.4640   -0.4060 c3        1 MOL      0.054793
      9 C4         -0.2750    5.4880   -0.4840 c         1 MOL      0.583561
     10 O2          0.3820    5.7060    0.5500 o         1 MOL     -0.504119
     11 C5         -2.3740    5.2870    1.0860 c3        1 MOL     -0.293713
     12 C6         -3.9200    5.2380    1.2470 c         1 MOL      0.775729
     13 O3         -4.4220    4.8190    2.2980 o         1 MOL     -0.744232
     14 O4         -4.6810    5.5810    0.3250 o         1 MOL     -0.744232
     15 H4         -3.4280    4.8950   -1.7670 hn        1 MOL      0.188823
     16 H5         -2.1990    6.3970   -0.8140 h1        1 MOL      0.031959
     17 H6         -1.9010    6.0910    1.6440 hc        1 MOL      0.096507
     18 H7         -1.9810    4.3210    1.3880 hc        1 MOL      0.096507
     19 N2          0.2280    5.0210   -1.6130 n         1 MOL     -0.479771
     20 C7          1.6710    4.9760   -1.9290 c3        1 MOL     -0.018116
     21 C8          2.4260    6.3170   -1.5490 c         1 MOL      0.467742
     22 O5          1.8620    7.3870   -1.5550 o         1 MOL     -0.566550
     23 C9          1.9640    4.6430   -3.3410 c3        1 MOL      0.071842
     24 C10         1.2990    5.6260   -4.3820 c3        1 MOL     -0.086216
     25 C11         1.3910    3.2070   -3.5060 c3        1 MOL      0.019705
     26 C12         1.4980    5.3210   -5.8990 c3        1 MOL     -0.170552
     27 H8         -0.4120    4.6420   -2.2970 hn        1 MOL      0.128122
     28 H9          2.0750    4.2130   -1.2670 h1        1 MOL      0.141818
     29 H10         3.0330    4.6900   -3.5550 hc        1 MOL      0.098043
     30 H11         1.7580    6.6020   -4.1820 hc        1 MOL      0.055573
     31 H12         0.2250    5.6970   -4.3140 hc        1 MOL      0.055573
     32 H13         1.9210    2.4380   -2.9430 hc        1 MOL      0.001299
     33 H14         0.3050    3.1300   -3.4040 hc        1 MOL      0.001299
     34 H15         1.5810    2.9450   -4.5440 hc        1 MOL      0.001299
     35 H16         2.5540    5.2970   -6.1600 hc        1 MOL      0.035122
     36 H17         0.9790    4.3900   -6.1120 hc        1 MOL      0.035122
     37 H18         1.0780    6.0970   -6.5390 hc        1 MOL      0.035122
     38 N3          3.7450    6.3770   -1.1910 n         1 MOL     -0.362269
     39 C13         4.7650    5.2680   -0.9820 c3        1 MOL     -0.234100
     40 C14         5.4370    5.4480    0.3920 c         1 MOL      0.760961
     41 O6          5.6720    6.5180    0.9360 o         1 MOL     -0.616064
     42 C15         5.7310    5.3410   -2.1840 c3        1 MOL     -0.309856
     43 C16         6.6340    4.1570   -2.1000 c         1 MOL      0.856146
     44 O7          7.6550    4.0680   -2.8240 o         1 MOL     -0.746631
     45 O8          6.4130    3.1940   -1.3060 o         1 MOL     -0.746631
     46 H19         4.0780    7.3070   -0.9450 hn        1 MOL      0.293670
     47 H20         4.3110    4.3130   -1.2230 h1        1 MOL      0.060696
     48 H21         6.3080    6.2560   -2.0280 hc        1 MOL      0.070529
     49 H22         5.1770    5.2940   -3.1190 hc        1 MOL      0.070529
     50 N4          5.7010    4.3340    1.0300 n         1 MOL     -0.421948
     51 C17         6.3480    4.2530    2.3830 c3        1 MOL      0.009431
     52 C18         6.9550    2.8360    2.6230 c         1 MOL      0.377020
     53 O9          8.2020    2.6910    2.3650 o         1 MOL     -0.526167
     54 H23         5.6280    3.4900    0.4890 hn        1 MOL      0.279583
     55 H24         5.6650    4.5410    3.1890 h1        1 MOL      0.048480
     56 H25         7.1940    4.9270    2.4110 h1        1 MOL      0.048480
     57 N5          6.1730    1.9030    3.0260 n         1 MOL     -0.274713
     58 C19         6.5930    0.5230    3.3240 c3        1 MOL      0.040542
     59 C20         7.3450   -0.2090    2.1430 c         1 MOL      0.337051
     60 O10         8.2520   -0.9650    2.4010 o         1 MOL     -0.495837
     61 C21         5.3490   -0.3350    3.6020 c3        1 MOL     -0.319944
     62 C22         4.2700   -0.1450    2.5340 c         1 MOL      0.765548
     63 O11         3.5640    0.8740    2.4570 o         1 MOL     -0.697137
     64 O12         4.0910   -1.0750    1.7330 o         1 MOL     -0.697137
     65 H26         5.1950    2.1330    3.1540 hn        1 MOL      0.230424
     66 H27         7.2640    0.5090    4.1910 h1        1 MOL      0.066754
     67 H28         4.9280    0.1290    4.4920 hc        1 MOL      0.074026
     68 H29         5.4530   -1.4110    3.7300 hc        1 MOL      0.074026
     69 N6          6.9060   -0.0240    0.8800 n         1 MOL     -0.025812
     70 C23         7.3800   -0.7580   -0.3030 c3        1 MOL     -0.228493
     71 C24         7.1830   -2.3390   -0.2400 c         1 MOL      0.552418
     72 O13         7.8980   -3.0910   -0.9270 o         1 MOL     -0.567960
     73 H30         6.1350    0.6230    0.7700 hn        1 MOL      0.226910
     74 H31         8.4550   -0.6240   -0.1750 h1        1 MOL      0.113691
     75 H32         6.9830   -0.2210   -1.1600 h1        1 MOL      0.113691
     76 N7          6.1720   -2.7650    0.5310 n         1 MOL     -0.293758
     77 C25         5.8970   -4.1800    0.8160 c3        1 MOL      0.073291
     78 C26         5.4500   -4.9450   -0.4120 c         1 MOL      0.324389
     79 O14         5.6750   -6.1710   -0.5060 o         1 MOL     -0.530199
     80 C27         7.0420   -4.7500    1.6920 c3        1 MOL      0.038983
     81 C28         6.8650   -4.2940    3.1960 c3        1 MOL     -0.167844
     82 C29         8.1600   -4.2900    3.9820 c         1 MOL      0.630340
     83 N8          8.9490   -3.2510    3.9320 n         1 MOL     -0.733290
     84 O15         8.4590   -5.2540    4.6920 o         1 MOL     -0.630631
     85 H33         5.6490   -2.0810    1.0670 hn        1 MOL      0.142260
     86 H34         5.0500   -4.2520    1.4860 h1        1 MOL      0.100122
     87 H35         8.1020   -4.6400    1.4610 hc        1 MOL      0.031646
     88 H36         6.9390   -5.8390    1.7040 hc        1 MOL      0.031646
     89 H37         6.1210   -4.8850    3.7360 hc        1 MOL      0.041187
     90 H38         6.5070   -3.2680    3.2460 hc        1 MOL      0.041187
     91 H39         8.6400   -2.4530    3.3950 hn        1 MOL      0.337442
     92 H40         9.8180   -3.2590    4.4540 hn        1 MOL      0.337442
     93 N9          4.8440   -4.2350   -1.3780 n         1 MOL     -0.154806
     94 C30         4.3670   -4.7970   -2.6540 c3        1 MOL     -0.063445
     95 C31         2.8350   -4.4070   -2.8230 c         1 MOL      0.558822
     96 O16         2.3510   -4.6720   -3.9420 o         1 MOL     -0.544777
     97 C32         5.2590   -4.4030   -3.8210 c3        1 MOL      0.304498
     98 C33         5.1780   -2.8710   -4.1050 c3        1 MOL     -0.345852
     99 C34         6.6510   -4.8630   -3.5830 c3        1 MOL     -0.345852
    100 H41         4.6090   -3.2690   -1.1710 hn        1 MOL      0.187178
    101 H42         4.2720   -5.8830   -2.6470 h1        1 MOL      0.086498
    102 H43         4.8100   -4.9410   -4.6540 hc        1 MOL     -0.042964
    103 H44         5.7610   -2.3460   -3.3430 hc        1 MOL      0.080466
    104 H45         5.5800   -2.6840   -5.0990 hc        1 MOL      0.080466
    105 H46         4.1600   -2.5090   -4.1740 hc        1 MOL      0.080466
    106 H47         6.6180   -5.9460   -3.4460 hc        1 MOL      0.080466
    107 H48         7.3120   -4.7540   -4.4500 hc        1 MOL      0.080466
    108 H49         7.1050   -4.2850   -2.7810 hc        1 MOL      0.080466
    109 N10         2.0760   -3.9240   -1.7910 n         1 MOL     -0.588253
    110 C35         0.8460   -3.1010   -1.9590 c3        1 MOL      0.391381
    111 C36        -0.1580   -3.2360   -0.7770 c         1 MOL      0.430527
    112 O17         0.2770   -3.5410    0.3580 o         1 MOL     -0.488576
    113 C37         1.3200   -1.6380   -2.2020 c3        1 MOL     -0.230076
    114 C38         0.2180   -0.6350   -2.5380 c         1 MOL      0.811595
    115 N11         0.2100    0.5180   -2.0270 n         1 MOL     -0.907388
    116 O18        -0.6400   -1.0030   -3.3010 o         1 MOL     -0.650345
    117 H50         2.4090   -3.9090   -0.8410 hn        1 MOL      0.265404
    118 H51         0.3100   -3.4040   -2.8560 h1        1 MOL     -0.001684
    119 H52         2.0020   -1.5170   -3.0450 hc        1 MOL      0.057970
    120 H53         1.7860   -1.3280   -1.2750 hc        1 MOL      0.057970
    121 H54         0.8440    0.6520   -1.2560 hn        1 MOL      0.384369
    122 H55        -0.3700    1.2780   -2.3650 hn        1 MOL      0.384369
    123 N12        -1.4710   -2.9800   -1.0080 n         1 MOL     -0.645441
    124 C39        -2.5400   -3.1190   -0.0300 c3        1 MOL      0.539551
    125 C40        -3.9130   -3.4850   -0.6350 c         1 MOL      0.461291
    126 O19        -4.2730   -3.1570   -1.7720 o         1 MOL     -0.535622
    127 C41        -2.6000   -1.8480    0.8040 c3        1 MOL     -0.449119
    128 C42        -2.9920   -2.1030    2.2370 ca        1 MOL      0.005841
    129 C43        -4.2570   -1.8270    2.6740 ca        1 MOL     -0.086106
    130 C44        -2.0690   -2.7490    3.1210 ca        1 MOL     -0.086106
    131 C45        -4.6860   -2.0670    4.0310 ca        1 MOL     -0.292269
    132 C46        -2.4420   -2.9740    4.4380 ca        1 MOL     -0.292269
    133 C47        -3.7500   -2.6890    4.8690 ca        1 MOL      0.351710
    134 O20        -4.0290   -2.7080    6.1860 oh        1 MOL     -0.540538
    135 H56        -1.7860   -2.6750   -1.9140 hn        1 MOL      0.309407
    136 H57        -2.3380   -3.9990    0.5860 h1        1 MOL     -0.008794
    137 H58        -3.2780   -1.1140    0.3630 hc        1 MOL      0.176734
    138 H59        -1.5810   -1.4530    0.8510 hc        1 MOL      0.176734
    139 H60        -4.9590   -1.4530    1.9400 ha        1 MOL      0.133741
    140 H61        -1.1000   -3.0720    2.7710 ha        1 MOL      0.133741
    141 H62        -5.6400   -1.7490    4.4050 ha        1 MOL      0.156729
    142 H63        -1.7350   -3.2940    5.1940 ha        1 MOL      0.156729
    143 H64        -4.7350   -2.1710    6.5420 ho        1 MOL      0.378150
    144 N13        -4.6750   -4.2020    0.2160 n         1 MOL     -0.681093
    145 C48        -6.0360   -4.5830   -0.1030 c3        1 MOL      0.501598
    146 C49        -7.0910   -3.8740    0.8090 c         1 MOL      0.352918
    147 O21        -7.4650   -4.3930    1.8290 o         1 MOL     -0.545921
    148 C50        -6.2630   -6.1170   -0.1910 c3        1 MOL      0.092341
    149 C51        -5.2760   -6.7980   -1.1400 c3        1 MOL     -0.276002
    150 C52        -5.6670   -8.2390   -1.1170 c         1 MOL      0.705394
    151 O22        -5.5890   -8.8890   -0.0430 o         1 MOL     -0.681042
    152 O23        -6.0850   -8.8800   -2.0880 o         1 MOL     -0.681042
    153 H65        -4.3240   -4.4090    1.1420 hn        1 MOL      0.340398
    154 H66        -6.2020   -4.2370   -1.1230 h1        1 MOL     -0.028034
    155 H67        -7.3020   -6.3140   -0.4630 hc        1 MOL     -0.014276
    156 H68        -6.0080   -6.4830    0.8020 hc        1 MOL     -0.014276
    157 H69        -4.2330   -6.6330   -0.8600 hc        1 MOL      0.049066
    158 H70        -5.4420   -6.3900   -2.1410 hc        1 MOL      0.049066
    159 N14        -7.5660   -2.6660    0.4740 n         1 MOL     -0.483729
    160 C53        -7.2390   -1.9210   -0.7820 c3        1 MOL     -0.024906
    161 C54        -7.9760   -2.5580   -1.9480 c         1 MOL      0.524592
    162 O24        -9.0980   -3.0240   -1.7990 o         1 MOL     -0.517875
    163 C55        -7.6010   -0.4250   -0.6480 c3        1 MOL     -0.141532
    164 C56        -6.6310    0.4160    0.2110 c3        1 MOL      0.314412
    165 C57        -6.6840    1.9110   -0.0040 c         1 MOL      0.795712
    166 O25        -5.6800    2.6290    0.1600 o         1 MOL     -0.838477
    167 O26        -7.7810    2.5250    0.0120 o         1 MOL     -0.838477
    168 H71        -8.2030   -2.1710    1.0920 hn        1 MOL      0.326339
    169 H72        -6.1610   -1.9950   -0.8870 h1        1 MOL      0.068842
    170 H73        -8.5710   -0.2320   -0.1930 hc        1 MOL      0.011190
    171 H74        -7.6410   -0.0620   -1.6690 hc        1 MOL      0.011190
    172 H75        -5.5930    0.1860   -0.0230 hc        1 MOL     -0.094620
    173 H76        -6.7720    0.2160    1.2730 hc        1 MOL     -0.094620
    174 N15        -7.2550   -2.6070   -3.1270 n         1 MOL     -0.246771
    175 C58        -7.5640   -3.2790   -4.3500 c3        1 MOL     -0.342397
    176 H77        -6.6420   -3.6090   -4.8260 h1        1 MOL      0.127863
    177 H78        -8.1940   -4.1440   -4.1410 h1        1 MOL      0.127863
    178 H79        -8.0920   -2.5960   -5.0170 h1        1 MOL      0.127863
    179 H80        -6.4470   -2.0040   -3.1880 hn        1 MOL      0.264931
    180 Ca1        -6.8760    4.6310    1.4590 Ca        1 MOL      1.746763
    181 O27        -7.0220    5.4440    4.1310 oh        1 MOL     -0.853809
    182 H81        -7.4170    6.2890    4.3600 ho        1 MOL      0.402973
    183 H82        -6.6790    5.1000    4.9550 ho        1 MOL      0.402973
    184 O28        -9.4380    5.3540    1.4350 oh        1 MOL     -0.853809
    185 H83        -9.9660    6.0510    1.8240 ho        1 MOL      0.402973
    186 H84       -10.0260    4.6120    1.3490 ho        1 MOL      0.402973
    187 O29        -7.0020    7.2400    1.7640 oh        1 MOL     -0.853809
    188 H85        -7.7090    7.8870    1.8500 ho        1 MOL      0.402973
    189 H86        -6.2100    7.7330    1.9630 ho        1 MOL      0.402973
    190 O30        -7.4470    2.6020    3.1380 oh        1 MOL     -0.853809
    191 H87        -6.7820    2.2900    3.7620 ho        1 MOL      0.402973
    192 H88        -8.0750    1.8880    3.0830 ho        1 MOL      0.402973
@<TRIPOS>BOND
     1    1    2 1   
     2    1    4 1   
     3    1    5 1   
     4    1    6 1   
     5    2    3 2   
     6    2    7 1   
     7    7    8 1   
     8    7   15 1   
     9    8    9 1   
    10    8   11 1   
    11    8   16 1   
    12    9   10 2   
    13    9   19 1   
    14   11   12 1   
    15   11   17 1   
    16   11   18 1   
    17   12   13 1   
    18   12   14 1   
    19   19   20 1   
    20   19   27 1   
    21   20   21 1   
    22   20   23 1   
    23   20   28 1   
    24   21   22 2   
    25   21   38 1   
    26   23   24 1   
    27   23   25 1   
    28   23   29 1   
    29   24   26 1   
    30   24   30 1   
    31   24   31 1   
    32   25   32 1   
    33   25   33 1   
    34   25   34 1   
    35   26   35 1   
    36   26   36 1   
    37   26   37 1   
    38   38   39 1   
    39   38   46 1   
    40   39   40 1   
    41   39   42 1   
    42   39   47 1   
    43   40   41 2   
    44   40   50 1   
    45   42   43 1   
    46   42   48 1   
    47   42   49 1   
    48   43   44 1   
    49   43   45 1   
    50   50   51 1   
    51   50   54 1   
    52   51   52 1   
    53   51   55 1   
    54   51   56 1   
    55   52   53 2   
    56   52   57 1   
    57   57   58 1   
    58   57   65 1   
    59   58   59 1   
    60   58   61 1   
    61   58   66 1   
    62   59   60 2   
    63   59   69 1   
    64   61   62 1   
    65   61   67 1   
    66   61   68 1   
    67   62   63 1   
    68   62   64 1   
    69   69   70 1   
    70   69   73 1   
    71   70   71 1   
    72   70   74 1   
    73   70   75 1   
    74   71   72 2   
    75   71   76 1   
    76   76   77 1   
    77   76   85 1   
    78   77   78 1   
    79   77   80 1   
    80   77   86 1   
    81   78   79 2   
    82   78   93 1   
    83   80   81 1   
    84   80   87 1   
    85   80   88 1   
    86   81   82 1   
    87   81   89 1   
    88   81   90 1   
    89   82   83 1   
    90   82   84 2   
    91   83   91 1   
    92   83   92 1   
    93   93   94 1   
    94   93  100 1   
    95   94   95 1   
    96   94   97 1   
    97   94  101 1   
    98   95   96 2   
    99   95  109 1   
   100   97   98 1   
   101   97   99 1   
   102   97  102 1   
   103   98  103 1   
   104   98  104 1   
   105   98  105 1   
   106   99  106 1   
   107   99  107 1   
   108   99  108 1   
   109  109  110 1   
   110  109  117 1   
   111  110  111 1   
   112  110  113 1   
   113  110  118 1   
   114  111  112 2   
   115  111  123 1   
   116  113  114 1   
   117  113  119 1   
   118  113  120 1   
   119  114  115 1   
   120  114  116 2   
   121  115  121 1   
   122  115  122 1   
   123  123  124 1   
   124  123  135 1   
   125  124  125 1   
   126  124  127 1   
   127  124  136 1   
   128  125  126 2   
   129  125  144 1   
   130  127  128 1   
   131  127  137 1   
   132  127  138 1   
   133  128  129 ar  
   134  128  130 ar  
   135  129  131 ar  
   136  129  139 1   
   137  130  132 ar  
   138  130  140 1   
   139  131  133 ar  
   140  131  141 1   
   141  132  133 ar  
   142  132  142 1   
   143  133  134 1   
   144  134  143 1   
   145  144  145 1   
   146  144  153 1   
   147  145  146 1   
   148  145  148 1   
   149  145  154 1   
   150  146  147 2   
   151  146  159 1   
   152  148  149 1   
   153  148  155 1   
   154  148  156 1   
   155  149  150 1   
   156  149  157 1   
   157  149  158 1   
   158  150  151 1   
   159  150  152 1   
   160  159  160 1   
   161  159  168 1   
   162  160  161 1   
   163  160  163 1   
   164  160  169 1   
   165  161  162 2   
   166  161  174 1   
   167  163  164 1   
   168  163  170 1   
   169  163  171 1   
   170  164  165 1   
   171  164  172 1   
   172  164  173 1   
   173  165  166 1   
   174  165  167 1   
   175  174  175 1   
   176  174  179 1   
   177  175  176 1   
   178  175  177 1   
   179  175  178 1   
   180  181  182 1   
   181  181  183 1   
   182  184  185 1   
   183  184  186 1   
   184  187  188 1   
   185  187  189 1   
   186  190  191 1   
   187  190  192 1   
@<TRIPOS>SUBSTRUCTURE
     1 MOL         1 TEMP              0 ****  ****    0 ROOT
