@<TRIPOS>MOLECULE
MOL
  178   175     1     0     0
SMALL
resp


@<TRIPOS>ATOM
      1 C1         -4.1050    0.9320    4.5530 c3        1 MOL     -0.506246
      2 C2         -4.9130   -0.4290    4.3210 c         1 MOL      0.702133
      3 O1         -4.9470   -1.3710    5.1700 o         1 MOL     -0.602989
      4 H1         -4.4280    1.6740    3.8220 hc        1 MOL      0.121460
      5 H2         -4.2990    1.3040    5.5580 hc        1 MOL      0.121460
      6 H3         -3.0370    0.7460    4.4340 hc        1 MOL      0.121460
      7 N1         -5.5180   -0.5550    3.1390 n         1 MOL     -0.747427
      8 C3         -6.1620   -1.8650    2.6650 c3        1 MOL      0.315255
      9 C4         -5.9880   -1.9690    1.1690 c         1 MOL      0.650313
     10 O2         -5.6080   -0.9910    0.5010 o         1 MOL     -0.689196
     11 C5         -7.6810   -1.8880    2.9920 c3        1 MOL     -0.282684
     12 C6         -8.2480   -3.2890    2.8420 c         1 MOL      0.732785
     13 O3         -7.4710   -4.2850    2.8540 o         1 MOL     -0.713530
     14 O4         -9.4580   -3.3530    2.5490 o         1 MOL     -0.713530
     15 H4         -5.4030    0.2390    2.5230 hn        1 MOL      0.479724
     16 H5         -5.5920   -2.7150    3.0390 h1        1 MOL      0.038354
     17 H6         -8.1350   -1.0660    2.4410 hc        1 MOL      0.040804
     18 H7         -7.8270   -1.5880    4.0260 hc        1 MOL      0.040804
     19 N2         -6.0980   -3.1860    0.6790 n         1 MOL     -0.550419
     20 C7         -5.9820   -3.5750   -0.6900 c3        1 MOL      0.436591
     21 C8         -4.5420   -3.6340   -1.0480 c         1 MOL      0.521972
     22 O5         -3.6980   -3.8760   -0.1630 o         1 MOL     -0.523628
     23 C9         -6.6510   -4.9250   -0.9180 c3        1 MOL     -0.411318
     24 H8         -6.4550   -3.8580    1.3430 hn        1 MOL      0.266490
     25 H9         -6.4970   -2.8620   -1.3380 h1        1 MOL     -0.047867
     26 H10        -7.6540   -4.7990   -0.5170 hc        1 MOL      0.103059
     27 H11        -6.6250   -5.2110   -1.9690 hc        1 MOL      0.103059
     28 H12        -6.1690   -5.7220   -0.3610 hc        1 MOL      0.103059
     29 N3         -4.2680   -3.4860   -2.3270 n         1 MOL     -0.661166
     30 C10        -2.9810   -3.0160   -2.8990 c3        1 MOL      0.045399
     31 C11        -1.8770   -4.0320   -3.3700 c         1 MOL      0.595384
     32 O6         -1.2340   -3.8370   -4.3960 o         1 MOL     -0.556223
     33 C12        -3.2530   -1.9880   -4.0420 c3        1 MOL     -0.248410
     34 C13        -4.1140   -0.7880   -3.7320 c         1 MOL      0.666564
     35 O7         -4.2240   -0.3810   -2.5410 o         1 MOL     -0.708720
     36 O8         -4.7120   -0.2730   -4.7080 o         1 MOL     -0.708720
     37 H13        -5.0410   -3.2050   -2.9170 hn        1 MOL      0.365492
     38 H14        -2.5140   -2.5080   -2.0590 h1        1 MOL      0.072985
     39 H15        -3.7460   -2.5070   -4.8710 hc        1 MOL      0.083979
     40 H16        -2.2950   -1.5360   -4.2860 hc        1 MOL      0.083979
     41 N4         -1.7400   -5.1600   -2.6570 n         1 MOL     -0.306890
     42 C14        -1.1110   -6.3540   -3.2140 c3        1 MOL     -0.040152
     43 C15         0.4170   -6.3820   -3.3680 c         1 MOL      0.592740
     44 O9          0.9360   -6.9790   -4.2910 o         1 MOL     -0.582551
     45 H17        -2.2470   -5.1770   -1.7790 hn        1 MOL      0.239064
     46 H18        -1.6130   -6.5340   -4.1660 h1        1 MOL      0.059134
     47 H19        -1.2720   -7.2930   -2.6710 h1        1 MOL      0.059134
     48 N5          1.0780   -5.6270   -2.5130 n         1 MOL     -0.547058
     49 C16         2.4860   -5.4400   -2.5290 c3        1 MOL      0.455556
     50 C17         3.0700   -5.2890   -1.1140 c         1 MOL      0.307437
     51 O10         2.3270   -4.7890   -0.2330 o         1 MOL     -0.434354
     52 C18         2.9660   -4.2500   -3.3930 c3        1 MOL     -0.241854
     53 C19         4.4110   -4.1870   -3.7720 c         1 MOL      0.596063
     54 N6          4.9770   -5.3370   -4.1320 n         1 MOL     -0.773165
     55 O11         4.9730   -3.1610   -3.6040 o         1 MOL     -0.523437
     56 H20         0.4590   -4.9520   -2.0950 hn        1 MOL      0.226150
     57 H21         2.9250   -6.3380   -2.9590 h1        1 MOL     -0.069538
     58 H22         2.6640   -3.4040   -2.7720 hc        1 MOL      0.101788
     59 H23         2.3350   -4.1280   -4.2790 hc        1 MOL      0.101788
     60 H24         4.4190   -6.1220   -4.4170 hn        1 MOL      0.349563
     61 H25         5.9420   -5.2990   -4.4250 hn        1 MOL      0.349563
     62 N7          4.3000   -5.7320   -0.8380 n         1 MOL     -0.356569
     63 C20         4.9740   -5.5750    0.4400 c3        1 MOL     -0.036037
     64 C21         5.5780   -4.2140    0.6130 c         1 MOL      0.466371
     65 O12         5.5920   -3.3600   -0.2920 o         1 MOL     -0.411132
     66 H26         4.7860   -6.3170   -1.5130 hn        1 MOL      0.258086
     67 H27         5.7290   -6.3730    0.4740 h1        1 MOL      0.073710
     68 H28         4.2910   -5.8500    1.2410 h1        1 MOL      0.073710
     69 N8          5.9040   -3.9700    1.9270 n         1 MOL     -0.327498
     70 C22         6.6560   -2.8480    2.4340 c3        1 MOL     -0.333197
     71 C23         5.7800   -1.6940    2.8500 c         1 MOL      0.658917
     72 O13         6.3290   -0.6210    2.9590 o         1 MOL     -0.585495
     73 C24         7.6500   -3.1650    3.5690 c3        1 MOL      0.633640
     74 C25         6.9940   -3.6070    4.8710 c3        1 MOL     -0.465036
     75 O14         8.5270   -4.1530    3.1230 oh        1 MOL     -0.681269
     76 H29         5.8570   -4.7910    2.5100 hn        1 MOL      0.201868
     77 H30         7.2110   -2.4380    1.5910 h1        1 MOL      0.135862
     78 H31         8.1970   -2.2540    3.8150 h1        1 MOL      0.008148
     79 H32         8.0560   -4.9850    3.0210 ho        1 MOL      0.397146
     80 H33         7.5650   -4.4520    5.2690 hc        1 MOL      0.101377
     81 H34         6.8580   -2.7520    5.5320 hc        1 MOL      0.101377
     82 H35         6.0060   -4.0530    4.8060 hc        1 MOL      0.101377
     83 N9          4.4590   -1.7880    3.0500 n         1 MOL     -0.401976
     84 C26         3.5260   -0.7200    3.4350 c3        1 MOL      0.042625
     85 C27         2.2760   -0.7410    2.5050 c         1 MOL      0.646935
     86 O15         1.8140   -1.8750    2.2190 o         1 MOL     -0.519640
     87 C28         3.2030   -0.7750    4.9130 c3        1 MOL      0.154948
     88 C29         4.4440   -0.8420    5.8740 c3        1 MOL     -0.177539
     89 C30         2.1230    0.1620    5.4530 c3        1 MOL     -0.093583
     90 C31         5.3380    0.3870    5.9840 c3        1 MOL     -0.304610
     91 H36         4.1040   -2.7310    2.9850 hn        1 MOL      0.218173
     92 H37         3.9760    0.2290    3.1420 h1        1 MOL      0.070724
     93 H38         2.7550   -1.7450    5.0930 hc        1 MOL     -0.021672
     94 H39         5.1100   -1.6020    5.4730 hc        1 MOL      0.077079
     95 H40         4.1160   -1.1300    6.8790 hc        1 MOL      0.077079
     96 H41         2.5250    1.1630    5.3550 hc        1 MOL      0.028339
     97 H42         1.1840    0.0900    4.9020 hc        1 MOL      0.028339
     98 H43         1.8970   -0.0900    6.4860 hc        1 MOL      0.028339
     99 H44         5.1410    1.0400    6.8340 hc        1 MOL      0.080543
    100 H45         6.3440   -0.0000    6.1700 hc        1 MOL      0.080543
    101 H46         5.4420    0.8790    5.0220 hc        1 MOL      0.080543
    102 N10         1.7820    0.4440    2.0430 n         1 MOL     -0.775707
    103 C32         0.5550    0.6460    1.1830 c3        1 MOL      0.563219
    104 C33         0.9200    1.3730   -0.1050 c         1 MOL      0.314527
    105 O16         0.0370    2.0260   -0.6980 o         1 MOL     -0.506176
    106 C34        -0.5880    1.3500    1.9730 c3        1 MOL     -0.318182
    107 C35        -1.9910    1.2410    1.2730 c         1 MOL      0.767022
    108 O17        -2.8120    2.1720    1.2630 o         1 MOL     -0.738258
    109 O18        -2.3220    0.2620    0.6520 o         1 MOL     -0.738258
    110 H47         2.1140    1.3350    2.3730 hn        1 MOL      0.336503
    111 H48         0.0960   -0.3060    0.9390 h1        1 MOL      0.006670
    112 H49        -0.3270    2.4120    2.0360 hc        1 MOL      0.067158
    113 H50        -0.7200    0.8510    2.9330 hc        1 MOL      0.067158
    114 N11         2.1940    1.5220   -0.3980 n         1 MOL     -0.350288
    115 C36         2.6770    2.4380   -1.3770 c3        1 MOL      0.160459
    116 C37         2.3350    3.8960   -1.0310 c         1 MOL      0.285599
    117 O19         2.4270    4.2150    0.1480 o         1 MOL     -0.534485
    118 C38         4.2280    2.3540   -1.3780 c3        1 MOL     -0.160804
    119 C39         4.9030    3.2770   -2.3620 ca        1 MOL      0.061823
    120 C40         4.8790    3.0080   -3.7280 ca        1 MOL     -0.176337
    121 C41         5.4700    4.5180   -1.9010 ca        1 MOL     -0.176337
    122 C42         5.4410    4.0090   -4.6220 ca        1 MOL     -0.062130
    123 C43         5.9890    5.4910   -2.7760 ca        1 MOL     -0.062130
    124 C44         6.0330    5.1970   -4.1210 ca        1 MOL     -0.170377
    125 H51         2.9320    1.0290    0.0830 hn        1 MOL      0.233795
    126 H52         2.2550    2.2240   -2.3530 h1        1 MOL      0.030585
    127 H53         4.5910    1.3300   -1.4880 hc        1 MOL      0.088496
    128 H54         4.5810    2.6640   -0.3950 hc        1 MOL      0.088496
    129 H55         4.5000    2.0590   -4.1000 ha        1 MOL      0.126318
    130 H56         5.5100    4.6090   -0.8240 ha        1 MOL      0.126318
    131 H57         5.5520    3.7380   -5.6610 ha        1 MOL      0.101942
    132 H58         6.4670    6.3820   -2.3860 ha        1 MOL      0.101942
    133 H59         6.4570    5.9080   -4.8150 ha        1 MOL      0.114499
    134 N12         2.0280    4.7350   -1.9970 n         1 MOL      0.196710
    135 C45         2.2680    6.1430   -1.8620 c3        1 MOL      0.043975
    136 C46         1.1940    6.7710   -0.9000 c         1 MOL      0.276819
    137 O20         1.3490    7.8880   -0.4660 o         1 MOL     -0.544883
    138 C47         2.2350    6.7540   -3.3000 c3        1 MOL     -0.137505
    139 C48         1.2700    5.7610   -4.0160 c3        1 MOL     -0.053157
    140 C49         1.5690    4.4090   -3.3570 c3        1 MOL     -0.125255
    141 H60         3.2530    6.3440   -1.4460 h1        1 MOL      0.027367
    142 H61         1.7960    7.7510   -3.2830 hc        1 MOL      0.068688
    143 H62         3.2360    6.6640   -3.7210 hc        1 MOL      0.068688
    144 H63         0.2260    5.9910   -3.8110 hc        1 MOL      0.039526
    145 H64         1.5730    5.6350   -5.0600 hc        1 MOL      0.039526
    146 H65         0.7270    3.7220   -3.2640 h1        1 MOL      0.042174
    147 H66         2.4120    3.9460   -3.8690 h1        1 MOL      0.042174
    148 N13         0.1750    6.0430   -0.5180 n         1 MOL      0.022429
    149 C50        -0.8930    6.3960    0.3960 c3        1 MOL     -0.367762
    150 C51        -0.4700    6.5710    1.8850 c         1 MOL      0.591390
    151 O21        -1.2330    6.9890    2.7330 o         1 MOL     -0.537770
    152 C52        -2.0290    5.3530    0.2820 c3        1 MOL      0.253543
    153 C53        -2.9120    5.6240   -0.9330 c3        1 MOL     -0.116795
    154 C54        -4.3410    5.1320   -0.7910 c         1 MOL      0.609278
    155 O22        -4.6830    3.9050   -0.9310 o         1 MOL     -0.691699
    156 O23        -5.2040    5.9770   -0.3660 o         1 MOL     -0.691699
    157 H67         0.0860    5.1110   -0.9040 hn        1 MOL      0.151446
    158 H68        -1.2850    7.3780    0.1160 h1        1 MOL      0.157495
    159 H69        -2.5670    5.4600    1.2190 hc        1 MOL     -0.020498
    160 H70        -1.5800    4.3660    0.3330 hc        1 MOL     -0.020498
    161 H71        -2.4350    5.2530   -1.8350 hc        1 MOL     -0.019246
    162 H72        -2.9030    6.7040   -1.1220 hc        1 MOL     -0.019246
    163 N14         0.8020    6.2510    2.1680 n         1 MOL     -0.297076
    164 C55         1.3880    6.1300    3.5220 c3        1 MOL     -0.210692
    165 H73         2.3820    5.6870    3.4480 h1        1 MOL      0.085625
    166 H74         1.4640    7.1180    3.9750 h1        1 MOL      0.085625
    167 H75         0.7520    5.4940    4.1380 h1        1 MOL      0.085625
    168 H76         1.3040    5.6350    1.5410 hn        1 MOL      0.257959
    169 Ca1        -4.4680    1.2320   -0.5700 Ca        1 MOL      1.771580
    170 O24        -2.4270    2.0190   -1.8830 oh        1 MOL     -0.927279
    171 H77        -2.1720    2.2220   -2.7850 ho        1 MOL      0.445816
    172 H78        -1.5980    1.9430   -1.4110 ho        1 MOL      0.445816
    173 O25        -5.4820    2.0610    1.8130 oh        1 MOL     -0.927279
    174 H79        -4.9910    2.8640    1.9990 ho        1 MOL      0.445816
    175 H80        -6.3220    2.1820    2.2360 ho        1 MOL      0.445816
    176 O26        -6.9480    1.5090   -1.5960 oh        1 MOL     -0.927279
    177 H81        -7.8380    1.7540   -1.3600 ho        1 MOL      0.445816
    178 H82        -7.0320    1.0710   -2.4380 ho        1 MOL      0.445816
@<TRIPOS>BOND
     1    1    2 1   
     2    1    4 1   
     3    1    5 1   
     4    1    6 1   
     5    2    3 2   
     6    2    7 1   
     7    7    8 1   
     8    7   15 1   
     9    8    9 1   
    10    8   11 1   
    11    8   16 1   
    12    9   10 2   
    13    9   19 1   
    14   11   12 1   
    15   11   17 1   
    16   11   18 1   
    17   12   13 1   
    18   12   14 1   
    19   19   20 1   
    20   19   24 1   
    21   20   21 1   
    22   20   23 1   
    23   20   25 1   
    24   21   22 2   
    25   21   29 1   
    26   23   26 1   
    27   23   27 1   
    28   23   28 1   
    29   29   30 1   
    30   29   37 1   
    31   30   31 1   
    32   30   33 1   
    33   30   38 1   
    34   31   32 2   
    35   31   41 1   
    36   33   34 1   
    37   33   39 1   
    38   33   40 1   
    39   34   35 1   
    40   34   36 1   
    41   41   42 1   
    42   41   45 1   
    43   42   43 1   
    44   42   46 1   
    45   42   47 1   
    46   43   44 2   
    47   43   48 1   
    48   48   49 1   
    49   48   56 1   
    50   49   50 1   
    51   49   52 1   
    52   49   57 1   
    53   50   51 2   
    54   50   62 1   
    55   52   53 1   
    56   52   58 1   
    57   52   59 1   
    58   53   54 1   
    59   53   55 2   
    60   54   60 1   
    61   54   61 1   
    62   62   63 1   
    63   62   66 1   
    64   63   64 1   
    65   63   67 1   
    66   63   68 1   
    67   64   65 2   
    68   64   69 1   
    69   69   70 1   
    70   69   76 1   
    71   70   71 1   
    72   70   73 1   
    73   70   77 1   
    74   71   72 2   
    75   71   83 1   
    76   73   74 1   
    77   73   75 1   
    78   73   78 1   
    79   74   80 1   
    80   74   81 1   
    81   74   82 1   
    82   75   79 1   
    83   83   84 1   
    84   83   91 1   
    85   84   85 1   
    86   84   87 1   
    87   84   92 1   
    88   85   86 2   
    89   85  102 1   
    90   87   88 1   
    91   87   89 1   
    92   87   93 1   
    93   88   90 1   
    94   88   94 1   
    95   88   95 1   
    96   89   96 1   
    97   89   97 1   
    98   89   98 1   
    99   90   99 1   
   100   90  100 1   
   101   90  101 1   
   102  102  103 1   
   103  102  110 1   
   104  103  104 1   
   105  103  106 1   
   106  103  111 1   
   107  104  105 2   
   108  104  114 1   
   109  106  107 1   
   110  106  112 1   
   111  106  113 1   
   112  107  108 1   
   113  107  109 1   
   114  114  115 1   
   115  114  125 1   
   116  115  116 1   
   117  115  118 1   
   118  115  126 1   
   119  116  117 2   
   120  116  134 1   
   121  118  119 1   
   122  118  127 1   
   123  118  128 1   
   124  119  120 ar  
   125  119  121 ar  
   126  120  122 ar  
   127  120  129 1   
   128  121  123 ar  
   129  121  130 1   
   130  122  124 ar  
   131  122  131 1   
   132  123  124 ar  
   133  123  132 1   
   134  124  133 1   
   135  134  135 1   
   136  134  140 1   
   137  135  136 1   
   138  135  138 1   
   139  135  141 1   
   140  136  137 2   
   141  136  148 1   
   142  138  139 1   
   143  138  142 1   
   144  138  143 1   
   145  139  140 1   
   146  139  144 1   
   147  139  145 1   
   148  140  146 1   
   149  140  147 1   
   150  148  149 1   
   151  148  157 1   
   152  149  150 1   
   153  149  152 1   
   154  149  158 1   
   155  150  151 2   
   156  150  163 1   
   157  152  153 1   
   158  152  159 1   
   159  152  160 1   
   160  153  154 1   
   161  153  161 1   
   162  153  162 1   
   163  154  155 1   
   164  154  156 1   
   165  163  164 1   
   166  163  168 1   
   167  164  165 1   
   168  164  166 1   
   169  164  167 1   
   170  170  171 1   
   171  170  172 1   
   172  173  174 1   
   173  173  175 1   
   174  176  177 1   
   175  176  178 1   
@<TRIPOS>SUBSTRUCTURE
     1 MOL         1 TEMP              0 ****  ****    0 ROOT
