@<TRIPOS>MOLECULE
MOL
  197   188     1     0     0
SMALL
resp


@<TRIPOS>ATOM
      1 C1          1.1550    0.8610    2.5580 c3        1 MOL     -0.420463
      2 C2          2.4230    0.3590    1.8310 c         1 MOL      0.578217
      3 O1          2.8900    0.8710    0.7960 o         1 MOL     -0.573660
      4 H1          0.8020    0.0920    3.2460 hc        1 MOL      0.117204
      5 H2          1.3900    1.7670    3.1160 hc        1 MOL      0.117204
      6 H3          0.3760    1.0770    1.8260 hc        1 MOL      0.117204
      7 N1          3.0370   -0.6470    2.3640 n         1 MOL     -0.306829
      8 C3          4.3480   -1.1760    1.9320 c3        1 MOL      0.027551
      9 C4          4.2360   -2.4020    0.9880 c         1 MOL      0.376441
     10 O2          5.2080   -2.7450    0.2760 o         1 MOL     -0.450556
     11 C5          5.2520   -1.6290    3.0770 c3        1 MOL     -0.274829
     12 C6          4.6860   -2.6270    4.2110 c         1 MOL      0.762531
     13 O3          3.4910   -2.5340    4.5640 o         1 MOL     -0.712856
     14 O4          5.4400   -3.4480    4.7540 o         1 MOL     -0.712856
     15 H4          2.6720   -1.0660    3.2020 hn        1 MOL      0.223080
     16 H5          4.9200   -0.4190    1.4030 h1        1 MOL      0.116813
     17 H6          5.5390   -0.7560    3.6580 hc        1 MOL      0.102513
     18 H7          6.1260   -2.1210    2.6410 hc        1 MOL      0.102513
     19 N2          3.1110   -3.0970    0.9410 n         1 MOL     -0.417613
     20 C7          3.0310   -4.4750    0.4140 c3        1 MOL      0.270522
     21 C8          3.3100   -4.5570   -1.1090 c         1 MOL      0.496790
     22 O5          3.9300   -5.5220   -1.5860 o         1 MOL     -0.525067
     23 C9          3.7650   -5.4880    1.3240 c3        1 MOL     -0.422489
     24 C10         3.1020   -5.5530    2.7220 c3        1 MOL      0.184743
     25 C11         3.8220   -6.4990    3.6540 c3        1 MOL     -0.055187
     26 C12         3.1990   -6.3870    5.0680 c3        1 MOL      0.156672
     27 N3          3.8400   -5.4030    5.9850 n4        1 MOL     -0.299427
     28 H8          2.3200   -2.7150    1.4390 hn        1 MOL      0.234468
     29 H9          1.9670   -4.6990    0.4730 h1        1 MOL     -0.017362
     30 H10         4.7870   -5.0910    1.3560 hc        1 MOL      0.137437
     31 H11         3.7830   -6.4820    0.8710 hc        1 MOL      0.137437
     32 H12         2.0570   -5.8190    2.6220 hc        1 MOL     -0.030175
     33 H13         3.1750   -4.5800    3.2070 hc        1 MOL     -0.030175
     34 H14         4.8850   -6.2680    3.7310 hc        1 MOL      0.042635
     35 H15         3.7620   -7.5320    3.3150 hc        1 MOL      0.042635
     36 H16         3.2460   -7.3450    5.5940 hx        1 MOL     -0.003969
     37 H17         2.1760   -6.0860    4.8720 hx        1 MOL     -0.003969
     38 H18         4.2000   -4.5730    5.5340 hn        1 MOL      0.294403
     39 H19         3.1980   -5.1020    6.7150 hn        1 MOL      0.294403
     40 H20         4.6640   -5.7790    6.4430 hn        1 MOL      0.294403
     41 N4          2.7590   -3.5890   -1.8820 n         1 MOL     -0.483877
     42 C13         3.0790   -3.3020   -3.2980 c3        1 MOL      0.235876
     43 C14         4.1460   -2.1750   -3.5240 c         1 MOL      0.388035
     44 O6          4.3600   -1.6550   -4.6060 o         1 MOL     -0.541677
     45 C15         1.7620   -3.1170   -4.0780 c3        1 MOL     -0.031499
     46 C16         0.5790   -4.1040   -3.8460 c         1 MOL      0.597906
     47 O7         -0.2470   -3.8950   -2.9330 o         1 MOL     -0.701612
     48 O8          0.5880   -5.1920   -4.5530 o         1 MOL     -0.701612
     49 H21         2.1750   -2.9110   -1.4090 hn        1 MOL      0.267198
     50 H22         3.5100   -4.1830   -3.7830 h1        1 MOL      0.079943
     51 H23         2.0370   -3.2650   -5.1210 hc        1 MOL     -0.008201
     52 H24         1.4380   -2.0980   -3.8980 hc        1 MOL     -0.008201
     53 N5          4.9100   -1.9230   -2.4920 n         1 MOL     -0.310974
     54 C17         5.8760   -0.8240   -2.4860 c3        1 MOL      0.108029
     55 C18         7.3480   -1.3240   -2.2230 c         1 MOL      0.598073
     56 O9          7.6020   -2.3900   -2.7210 o         1 MOL     -0.534140
     57 H25         4.8560   -2.5230   -1.6870 hn        1 MOL      0.188452
     58 H26         5.6060   -0.0320   -1.7840 h1        1 MOL      0.035157
     59 H27         5.9490   -0.3070   -3.4410 h1        1 MOL      0.035157
     60 N6          8.2230   -0.5710   -1.6340 n         1 MOL     -0.693852
     61 C19         7.9790    0.8340   -1.2380 c3        1 MOL      0.699441
     62 C20         7.4390    0.9440    0.2630 c         1 MOL      0.344882
     63 O10         7.9220    0.2470    1.1360 o         1 MOL     -0.513478
     64 C21         9.2800    1.5690   -1.3380 c3        1 MOL     -0.528302
     65 C22        10.0500    1.5290   -2.6700 c         1 MOL      0.681252
     66 N7         11.0220    0.6500   -2.7830 n         1 MOL     -0.718135
     67 O11         9.6960    2.0880   -3.6400 o         1 MOL     -0.528456
     68 H28         9.0570   -1.0960   -1.4100 hn        1 MOL      0.322944
     69 H29         7.3370    1.3210   -1.9660 h1        1 MOL     -0.051196
     70 H30         9.9690    1.2570   -0.5580 hc        1 MOL      0.108014
     71 H31         9.0800    2.6170   -1.0990 hc        1 MOL      0.108014
     72 H32        11.2550    0.0990   -1.9640 hn        1 MOL      0.342139
     73 H33        11.6410    0.6990   -3.5780 hn        1 MOL      0.342139
     74 N8          6.4370    1.8080    0.5890 n         1 MOL     -0.340985
     75 C23         5.7200    2.6600   -0.4000 c3        1 MOL     -0.364378
     76 C24         4.8640    3.8120    0.2540 c         1 MOL      0.709550
     77 O12         5.3600    4.5800    1.0880 o         1 MOL     -0.550094
     78 H34         6.1350    1.9270    1.5390 hn        1 MOL      0.319092
     79 H35         5.1990    2.0520   -1.1330 h1        1 MOL      0.125641
     80 H36         6.4060    3.2330   -1.0130 h1        1 MOL      0.125641
     81 N9          3.5190    3.9060   -0.0510 n         1 MOL     -0.515798
     82 C25         2.6400    5.0180    0.2920 c3        1 MOL      0.095727
     83 C26         1.1340    4.6780    0.1900 c         1 MOL      0.537771
     84 O13         0.6950    3.8130   -0.6110 o         1 MOL     -0.519625
     85 C27         2.9830    6.2620   -0.6000 c3        1 MOL     -0.280625
     86 C28         2.2350    7.5330   -0.2380 ca        1 MOL      0.146904
     87 C29         1.1880    8.0850   -0.9880 ca        1 MOL     -0.223609
     88 C30         2.3600    7.9300    1.0700 ca        1 MOL     -0.223609
     89 C31         0.3510    9.0700   -0.5070 ca        1 MOL     -0.201095
     90 C32         1.5540    9.0290    1.5270 ca        1 MOL     -0.201095
     91 C33         0.5480    9.6360    0.7510 ca        1 MOL      0.271979
     92 O14        -0.2980   10.6180    1.2120 oh        1 MOL     -0.438832
     93 H37         3.1390    3.2030   -0.6800 hn        1 MOL      0.291231
     94 H38         2.8880    5.2500    1.3290 h1        1 MOL      0.056098
     95 H39         2.7880    6.0530   -1.6480 hc        1 MOL      0.113481
     96 H40         4.0570    6.3900   -0.4530 hc        1 MOL      0.113481
     97 H41         0.8440    7.6540   -1.9180 ha        1 MOL      0.159676
     98 H42         3.0650    7.3750    1.6760 ha        1 MOL      0.159676
     99 H43        -0.4340    9.4410   -1.1590 ha        1 MOL      0.132293
    100 H44         1.7350    9.3930    2.5290 ha        1 MOL      0.132293
    101 H45        -0.0930   10.7770    2.1390 ho        1 MOL      0.330908
    102 N10         0.3170    5.4660    0.9180 n         1 MOL     -0.322337
    103 C34        -1.1470    5.1110    1.1880 c3        1 MOL     -0.169681
    104 C35        -2.1160    5.5870    0.1190 c         1 MOL      0.651618
    105 O15        -2.0310    6.6680   -0.4680 o         1 MOL     -0.480738
    106 C36        -1.5000    5.6290    2.6530 c3        1 MOL      0.133653
    107 C37        -1.0990    7.1280    2.9950 c3        1 MOL      0.141012
    108 C38        -3.0300    5.3910    2.8710 c3        1 MOL     -0.281111
    109 C39        -1.2460    7.6170    4.4500 c3        1 MOL     -0.337517
    110 H46         0.7410    6.1470    1.5250 hn        1 MOL      0.189483
    111 H47        -1.2210    4.0300    1.2670 h1        1 MOL      0.097188
    112 H48        -0.8210    5.0420    3.2690 hc        1 MOL     -0.001293
    113 H49        -1.6190    7.8110    2.3290 hc        1 MOL      0.003872
    114 H50        -0.0480    7.2430    2.7000 hc        1 MOL      0.003872
    115 H51        -3.4340    4.3910    2.6950 hc        1 MOL      0.071585
    116 H52        -3.3070    5.6440    3.8950 hc        1 MOL      0.071585
    117 H53        -3.5700    6.0600    2.2110 hc        1 MOL      0.071585
    118 H54        -2.2850    7.5770    4.7540 hc        1 MOL      0.077909
    119 H55        -0.5550    7.0020    5.0210 hc        1 MOL      0.077909
    120 H56        -0.8610    8.6300    4.5740 hc        1 MOL      0.077909
    121 N11        -2.9970    4.6410   -0.1640 n         1 MOL     -0.385847
    122 C40        -3.9820    4.7290   -1.2640 c3        1 MOL     -0.362336
    123 C41        -4.3500    3.3660   -1.8880 c         1 MOL      1.009785
    124 O16        -4.3380    2.3830   -1.1900 o         1 MOL     -0.578697
    125 C42        -5.1880    5.6020   -0.8450 c3        1 MOL      0.053851
    126 O17        -5.6460    5.1490    0.3650 oh        1 MOL     -0.551780
    127 H57        -3.0170    3.7900    0.3870 hn        1 MOL      0.280060
    128 H58        -3.5100    5.2410   -2.1090 h1        1 MOL      0.143274
    129 H59        -6.0130    5.6070   -1.5600 h1        1 MOL      0.057808
    130 H60        -4.9020    6.6240   -0.5800 h1        1 MOL      0.057808
    131 H61        -6.3300    5.7190    0.7300 ho        1 MOL      0.411082
    132 N12        -4.5680    3.2400   -3.2040 n         1 MOL     -0.845849
    133 C43        -4.9550    2.0230   -3.9130 c3        1 MOL      0.513296
    134 C44        -5.9710    1.1800   -3.1790 c         1 MOL      0.296438
    135 O18        -5.7860   -0.0370   -3.1170 o         1 MOL     -0.448128
    136 C45        -3.6980    1.3230   -4.3910 c3        1 MOL     -0.438801
    137 H62        -4.3960    4.0550   -3.7760 hn        1 MOL      0.344855
    138 H63        -5.4600    2.3160   -4.8420 h1        1 MOL     -0.002556
    139 H64        -2.9630    2.0960   -4.6050 hc        1 MOL      0.129280
    140 H65        -3.2880    0.6190   -3.6620 hc        1 MOL      0.129280
    141 H66        -3.9880    0.8100   -5.3130 hc        1 MOL      0.129280
    142 N13        -6.9880    1.8350   -2.6150 n         1 MOL     -0.475037
    143 C46        -8.2750    1.3500   -2.1330 c3        1 MOL      0.381652
    144 C47        -8.2120    0.2140   -1.1890 c         1 MOL      0.261645
    145 O19        -9.1740   -0.5590   -1.0520 o         1 MOL     -0.519256
    146 C48        -9.0600    0.9910   -3.4060 c3        1 MOL     -0.321775
    147 H67        -7.0350    2.8330   -2.7770 hn        1 MOL      0.246166
    148 H68        -8.7690    2.1060   -1.5140 h1        1 MOL      0.010581
    149 H69       -10.0760    0.6560   -3.1840 hc        1 MOL      0.087253
    150 H70        -9.2240    1.9160   -3.9540 hc        1 MOL      0.087253
    151 H71        -8.5330    0.2660   -4.0290 hc        1 MOL      0.087253
    152 N14        -7.1470    0.1420   -0.3880 n         1 MOL     -0.041550
    153 C49        -6.9480   -0.6800    0.7760 c3        1 MOL     -0.051198
    154 C50        -8.0290   -0.3980    1.8620 c         1 MOL      0.420258
    155 O20        -8.3730   -1.2750    2.6970 o         1 MOL     -0.507724
    156 C51        -5.5330   -0.5900    1.3350 c3        1 MOL      0.118985
    157 C52        -5.0920   -1.7320    2.2160 c3        1 MOL     -0.106633
    158 C53        -4.7400   -2.9910    1.3970 c         1 MOL      0.711841
    159 O21        -3.7230   -3.0720    0.6560 o         1 MOL     -0.754972
    160 O22        -5.5060   -3.9540    1.5240 o         1 MOL     -0.754972
    161 H72        -6.4520    0.8610   -0.5330 hn        1 MOL      0.085174
    162 H73        -7.1140   -1.7480    0.5690 h1        1 MOL      0.107820
    163 H74        -5.6240    0.2200    2.0490 hc        1 MOL      0.014509
    164 H75        -4.8110   -0.5240    0.5320 hc        1 MOL      0.014509
    165 H76        -5.8450   -1.8850    2.9860 hc        1 MOL      0.002590
    166 H77        -4.1770   -1.3500    2.6680 hc        1 MOL      0.002590
    167 N15        -8.4680    0.8900    2.0450 n         1 MOL     -0.235580
    168 C54        -9.1560    1.3030    3.2870 c3        1 MOL     -0.187449
    169 H78        -9.0480    0.5210    4.0380 h1        1 MOL      0.097103
    170 H79        -8.7130    2.2260    3.6590 h1        1 MOL      0.097103
    171 H80       -10.2140    1.4640    3.0810 h1        1 MOL      0.097103
    172 H81        -8.1120    1.5740    1.3890 hn        1 MOL      0.175780
    173 Ca1        -3.7190   -5.6090    0.0860 Ca        1 MOL      1.833806
    174 O23        -4.3640   -4.8640   -2.6010 oh        1 MOL     -0.843476
    175 H82        -3.8950   -5.3180   -3.3020 ho        1 MOL      0.417806
    176 H83        -4.8020   -4.1320   -3.0400 ho        1 MOL      0.417806
    177 O24        -4.9620   -8.0450    1.3260 oh        1 MOL     -0.843476
    178 H84        -5.7690   -8.5580    1.2990 ho        1 MOL      0.417806
    179 H85        -4.3790   -8.5440    1.9090 ho        1 MOL      0.417806
    180 O25        -4.4210   -7.6940   -1.4750 oh        1 MOL     -0.843476
    181 H86        -4.6840   -7.6330   -2.3940 ho        1 MOL      0.417806
    182 H87        -5.0500   -8.2840   -1.0770 ho        1 MOL      0.417806
    183 O26        -1.1500   -4.5740    0.4270 oh        1 MOL     -0.843476
    184 H88        -0.6130   -3.8460    0.1280 ho        1 MOL      0.417806
    185 H89        -0.8250   -4.7760    1.3080 ho        1 MOL      0.417806
    186 O27        -3.3510   -5.7820    2.9080 oh        1 MOL     -0.843476
    187 H90        -3.8210   -6.3570    3.5040 ho        1 MOL      0.417806
    188 H91        -3.2560   -4.9570    3.3980 ho        1 MOL      0.417806
    189 O28        -1.8080   -7.3290    0.6990 oh        1 MOL     -0.843476
    190 H92        -1.0360   -7.3300    0.1340 ho        1 MOL      0.417806
    191 H93        -1.5380   -7.8540    1.4630 ho        1 MOL      0.417806
    192 O29        -6.4780   -5.9040   -0.4890 oh        1 MOL     -0.843476
    193 H94        -6.8980   -5.0800   -0.2630 ho        1 MOL      0.417806
    194 H95        -7.1930   -6.5350   -0.5550 ho        1 MOL      0.417806
    195 O30        -1.9520   -6.0140   -2.1540 oh        1 MOL     -0.843476
    196 H96        -2.0710   -6.4030   -3.0180 ho        1 MOL      0.417806
    197 H97        -1.1730   -5.4650   -2.2580 ho        1 MOL      0.417806
@<TRIPOS>BOND
     1    1    2 1   
     2    1    4 1   
     3    1    5 1   
     4    1    6 1   
     5    2    3 2   
     6    2    7 1   
     7    7    8 1   
     8    7   15 1   
     9    8    9 1   
    10    8   11 1   
    11    8   16 1   
    12    9   10 2   
    13    9   19 1   
    14   11   12 1   
    15   11   17 1   
    16   11   18 1   
    17   12   13 1   
    18   12   14 1   
    19   19   20 1   
    20   19   28 1   
    21   20   21 1   
    22   20   23 1   
    23   20   29 1   
    24   21   22 2   
    25   21   41 1   
    26   23   24 1   
    27   23   30 1   
    28   23   31 1   
    29   24   25 1   
    30   24   32 1   
    31   24   33 1   
    32   25   26 1   
    33   25   34 1   
    34   25   35 1   
    35   26   27 1   
    36   26   36 1   
    37   26   37 1   
    38   27   38 1   
    39   27   39 1   
    40   27   40 1   
    41   41   42 1   
    42   41   49 1   
    43   42   43 1   
    44   42   45 1   
    45   42   50 1   
    46   43   44 2   
    47   43   53 1   
    48   45   46 1   
    49   45   51 1   
    50   45   52 1   
    51   46   47 1   
    52   46   48 1   
    53   53   54 1   
    54   53   57 1   
    55   54   55 1   
    56   54   58 1   
    57   54   59 1   
    58   55   56 2   
    59   55   60 1   
    60   60   61 1   
    61   60   68 1   
    62   61   62 1   
    63   61   64 1   
    64   61   69 1   
    65   62   63 2   
    66   62   74 1   
    67   64   65 1   
    68   64   70 1   
    69   64   71 1   
    70   65   66 1   
    71   65   67 2   
    72   66   72 1   
    73   66   73 1   
    74   74   75 1   
    75   74   78 1   
    76   75   76 1   
    77   75   79 1   
    78   75   80 1   
    79   76   77 2   
    80   76   81 1   
    81   81   82 1   
    82   81   93 1   
    83   82   83 1   
    84   82   85 1   
    85   82   94 1   
    86   83   84 2   
    87   83  102 1   
    88   85   86 1   
    89   85   95 1   
    90   85   96 1   
    91   86   87 ar  
    92   86   88 ar  
    93   87   89 ar  
    94   87   97 1   
    95   88   90 ar  
    96   88   98 1   
    97   89   91 ar  
    98   89   99 1   
    99   90   91 ar  
   100   90  100 1   
   101   91   92 1   
   102   92  101 1   
   103  102  103 1   
   104  102  110 1   
   105  103  104 1   
   106  103  106 1   
   107  103  111 1   
   108  104  105 2   
   109  104  121 1   
   110  106  107 1   
   111  106  108 1   
   112  106  112 1   
   113  107  109 1   
   114  107  113 1   
   115  107  114 1   
   116  108  115 1   
   117  108  116 1   
   118  108  117 1   
   119  109  118 1   
   120  109  119 1   
   121  109  120 1   
   122  121  122 1   
   123  121  127 1   
   124  122  123 1   
   125  122  125 1   
   126  122  128 1   
   127  123  124 2   
   128  123  132 1   
   129  125  126 1   
   130  125  129 1   
   131  125  130 1   
   132  126  131 1   
   133  132  133 1   
   134  132  137 1   
   135  133  134 1   
   136  133  136 1   
   137  133  138 1   
   138  134  135 2   
   139  134  142 1   
   140  136  139 1   
   141  136  140 1   
   142  136  141 1   
   143  142  143 1   
   144  142  147 1   
   145  143  144 1   
   146  143  146 1   
   147  143  148 1   
   148  144  145 2   
   149  144  152 1   
   150  146  149 1   
   151  146  150 1   
   152  146  151 1   
   153  152  153 1   
   154  152  161 1   
   155  153  154 1   
   156  153  156 1   
   157  153  162 1   
   158  154  155 2   
   159  154  167 1   
   160  156  157 1   
   161  156  163 1   
   162  156  164 1   
   163  157  158 1   
   164  157  165 1   
   165  157  166 1   
   166  158  159 1   
   167  158  160 1   
   168  167  168 1   
   169  167  172 1   
   170  168  169 1   
   171  168  170 1   
   172  168  171 1   
   173  174  175 1   
   174  174  176 1   
   175  177  178 1   
   176  177  179 1   
   177  180  181 1   
   178  180  182 1   
   179  183  184 1   
   180  183  185 1   
   181  186  187 1   
   182  186  188 1   
   183  189  190 1   
   184  189  191 1   
   185  192  193 1   
   186  192  194 1   
   187  195  196 1   
   188  195  197 1   
@<TRIPOS>SUBSTRUCTURE
     1 MOL         1 TEMP              0 ****  ****    0 ROOT
