@<TRIPOS>MOLECULE
MOL
  181   177     1     0     0
SMALL
resp


@<TRIPOS>ATOM
      1 C1          1.3550    6.1850   -2.1570 c3        1 MOL     -0.375069
      2 C2          2.7360    6.3080   -1.3930 c         1 MOL      0.692799
      3 O1          2.8280    6.8890   -0.3050 o         1 MOL     -0.607070
      4 H1          1.2890    5.2060   -2.6310 hc        1 MOL      0.092459
      5 H2          0.5360    6.3000   -1.4470 hc        1 MOL      0.092459
      6 H3          1.2900    6.9630   -2.9180 hc        1 MOL      0.092459
      7 N1          3.7710    5.7610   -1.9660 n         1 MOL     -0.627457
      8 C3          5.0890    6.0110   -1.3260 c3        1 MOL      0.389288
      9 C4          5.5150    4.7450   -0.4250 c         1 MOL      0.547013
     10 O2          6.0910    3.7770   -0.8650 o         1 MOL     -0.502237
     11 C5          6.1950    6.2810   -2.3340 c3        1 MOL     -0.524364
     12 C6          7.5630    6.4880   -1.6960 c         1 MOL      0.782447
     13 O3          7.7420    6.9260   -0.5190 o         1 MOL     -0.737778
     14 O4          8.6180    6.1890   -2.3840 o         1 MOL     -0.737778
     15 H4          3.6590    5.4450   -2.9260 hn        1 MOL      0.327211
     16 H5          5.0270    6.8150   -0.5890 h1        1 MOL      0.010166
     17 H6          5.9490    7.2860   -2.6920 hc        1 MOL      0.096144
     18 H7          6.2280    5.4160   -3.0060 hc        1 MOL      0.096144
     19 N2          5.1380    4.8570    0.8670 n         1 MOL     -0.664258
     20 C7          5.2600    3.7930    1.9000 c3        1 MOL      0.650841
     21 C8          3.9690    2.9900    2.0110 c         1 MOL      0.360587
     22 O5          2.9340    3.3520    1.4780 o         1 MOL     -0.550912
     23 C9          5.6140    4.5630    3.1890 c3        1 MOL     -0.558534
     24 H8          4.5630    5.6240    1.1800 hn        1 MOL      0.296444
     25 H9          6.1200    3.1680    1.6750 h1        1 MOL     -0.004300
     26 H10         5.0960    5.5220    3.1580 hc        1 MOL      0.133563
     27 H11         5.3520    4.0090    4.0840 hc        1 MOL      0.133563
     28 H12         6.6530    4.8080    2.9840 hc        1 MOL      0.133563
     29 N3          3.9580    1.8060    2.5460 n         1 MOL     -0.394291
     30 C10         5.0820    0.9060    2.9950 c3        1 MOL     -0.145107
     31 C11         5.6270    0.0410    1.9190 c         1 MOL      0.553645
     32 O6          4.9790   -0.3600    0.9630 o         1 MOL     -0.456229
     33 C12         4.6820    0.0050    4.2130 c3        1 MOL     -0.185129
     34 C13         3.3920   -0.8120    3.9750 c         1 MOL      0.622170
     35 O7          2.9780   -1.6660    4.8230 o         1 MOL     -0.665877
     36 O8          2.6450   -0.5940    2.9570 o         1 MOL     -0.665877
     37 H13         3.0540    1.5170    2.8830 hn        1 MOL      0.315840
     38 H14         5.9600    1.4570    3.3320 h1        1 MOL      0.055368
     39 H15         4.4030    0.5540    5.1120 hc        1 MOL      0.080252
     40 H16         5.5200   -0.5730    4.5840 hc        1 MOL      0.080252
     41 N4          6.8130   -0.4090    2.1100 n         1 MOL     -0.443107
     42 C14         7.4180   -1.5010    1.3290 c3        1 MOL     -0.063618
     43 C15         7.6750   -1.0430   -0.1160 c         1 MOL      0.544249
     44 O9          8.2080    0.0910   -0.3120 o         1 MOL     -0.492416
     45 H17         7.2290   -0.0850    2.9730 hn        1 MOL      0.324147
     46 H18         6.8060   -2.3960    1.4670 h1        1 MOL      0.093348
     47 H19         8.3930   -1.7940    1.7070 h1        1 MOL      0.093348
     48 N5          7.2990   -1.8060   -1.1400 n         1 MOL     -0.533712
     49 C16         6.3550   -2.8460   -1.0310 c3        1 MOL      0.203517
     50 C17         5.2610   -2.9800   -2.0780 c         1 MOL      0.581651
     51 O10         5.4280   -2.2520   -3.0720 o         1 MOL     -0.497440
     52 C18         7.2180   -4.1500   -0.9120 c3        1 MOL     -0.321303
     53 C19         7.6510   -4.5950   -2.3160 c         1 MOL      0.634263
     54 N6          6.9260   -5.4110   -2.9660 n         1 MOL     -0.685121
     55 O11         8.7220   -4.2450   -2.7670 o         1 MOL     -0.536949
     56 H20         7.5100   -1.4680   -2.0690 hn        1 MOL      0.355269
     57 H21         5.8360   -2.8080   -0.0720 h1        1 MOL     -0.015852
     58 H22         6.6500   -4.9550   -0.4500 hc        1 MOL      0.070582
     59 H23         8.1080   -3.9620   -0.3220 hc        1 MOL      0.070582
     60 H24         6.0130   -5.6920   -2.6360 hn        1 MOL      0.328294
     61 H25         7.3930   -6.0400   -3.6020 hn        1 MOL      0.328294
     62 N7          4.2410   -3.8120   -1.9670 n         1 MOL     -0.391945
     63 C20         3.3890   -4.1630   -3.1420 c3        1 MOL     -0.474121
     64 C21         1.9460   -4.7970   -2.8340 c         1 MOL      0.586283
     65 O12         1.2680   -5.2810   -3.7200 o         1 MOL     -0.551233
     66 H26         4.1080   -4.4030   -1.1560 hn        1 MOL      0.261335
     67 H27         3.9260   -4.8600   -3.7940 h1        1 MOL      0.212682
     68 H28         3.1400   -3.2330   -3.6560 h1        1 MOL      0.212682
     69 N8          1.4650   -4.8010   -1.6170 n         1 MOL     -0.191863
     70 C22         0.1980   -5.4160   -1.1690 c3        1 MOL     -0.353739
     71 C23        -0.8390   -4.3380   -0.7340 c         1 MOL      0.808343
     72 O13        -0.5300   -3.4480    0.0420 o         1 MOL     -0.714488
     73 C24         0.4170   -6.4290   -0.0150 c3        1 MOL      0.583837
     74 C25         1.2430   -7.6720   -0.4030 c3        1 MOL     -0.349849
     75 O14         1.1190   -5.8340    1.1160 oh        1 MOL     -0.690325
     76 H29         2.1030   -4.5900   -0.8600 hn        1 MOL      0.223483
     77 H30        -0.2690   -5.9750   -1.9910 h1        1 MOL      0.128483
     78 H31        -0.5180   -6.8290    0.3870 h1        1 MOL     -0.034731
     79 H32         0.4410   -5.8150    1.7990 ho        1 MOL      0.433875
     80 H33         0.8110   -8.3620   -1.1250 hc        1 MOL      0.073426
     81 H34         2.0940   -7.2830   -0.9540 hc        1 MOL      0.073426
     82 H35         1.6960   -8.0660    0.5140 hc        1 MOL      0.073426
     83 N9         -2.0580   -4.4640   -1.2540 n         1 MOL     -0.561715
     84 C26        -3.1150   -3.4590   -0.9920 c3        1 MOL     -0.140395
     85 C27        -3.6530   -3.4620    0.4420 c         1 MOL      0.682404
     86 O15        -4.0590   -4.4530    1.0300 o         1 MOL     -0.590861
     87 C28        -4.3100   -3.6600   -1.9760 c3        1 MOL      0.103575
     88 C29        -5.2590   -2.4660   -1.9870 c3        1 MOL     -0.029197
     89 C30        -3.7050   -3.9310   -3.3520 c3        1 MOL     -0.053256
     90 C31        -6.6870   -2.8170   -2.4910 c3        1 MOL     -0.432280
     91 H36        -2.1980   -5.2180   -1.9000 hn        1 MOL      0.284985
     92 H37        -2.6360   -2.4950   -1.1930 h1        1 MOL      0.204917
     93 H38        -4.9210   -4.5330   -1.7550 hc        1 MOL      0.028364
     94 H39        -4.9090   -1.6790   -2.6450 hc        1 MOL      0.016331
     95 H40        -5.3790   -2.0190   -0.9980 hc        1 MOL      0.016331
     96 H41        -3.3790   -4.9630   -3.4870 hc        1 MOL      0.018098
     97 H42        -4.4660   -3.9370   -4.1350 hc        1 MOL      0.018098
     98 H43        -2.9990   -3.1930   -3.7130 hc        1 MOL      0.018098
     99 H44        -7.0500   -3.4690   -1.6970 hc        1 MOL      0.111907
    100 H45        -7.2110   -1.8730   -2.6480 hc        1 MOL      0.111907
    101 H46        -6.5350   -3.2580   -3.4820 hc        1 MOL      0.111907
    102 N10        -3.8540   -2.2330    0.9920 n         1 MOL     -0.253295
    103 C32        -4.5640   -2.0870    2.2990 c3        1 MOL      0.195005
    104 C33        -5.7100   -1.1240    2.2110 c         1 MOL      0.131180
    105 O16        -6.5840   -1.0950    3.1020 o         1 MOL     -0.532568
    106 C34        -3.5480   -1.6440    3.3860 c3        1 MOL     -0.077711
    107 C35        -2.3490   -2.5840    3.4630 c         1 MOL      0.634158
    108 O17        -2.4480   -3.7440    3.8100 o         1 MOL     -0.687751
    109 O18        -1.2120   -2.0500    3.2450 o         1 MOL     -0.687751
    110 H47        -3.4310   -1.4200    0.5710 hn        1 MOL     -0.106023
    111 H48        -4.9580   -3.0560    2.6250 h1        1 MOL      0.072812
    112 H49        -4.1350   -1.7140    4.3050 hc        1 MOL      0.020345
    113 H50        -3.2150   -0.6250    3.2410 hc        1 MOL      0.020345
    114 N11        -5.7120   -0.4000    1.1160 n         1 MOL     -0.063391
    115 C36        -6.8190    0.6430    0.8870 c3        1 MOL      0.577305
    116 C37        -6.1910    1.9550    0.5230 c         1 MOL      0.079056
    117 O19        -6.4550    2.5400   -0.5120 o         1 MOL     -0.465664
    118 C38        -7.7430    0.0630   -0.1540 c3        1 MOL     -0.298035
    119 C39        -9.1850    0.6470   -0.3700 ca        1 MOL     -0.016828
    120 C40        -9.9740    0.0930   -1.3530 ca        1 MOL     -0.032834
    121 C41        -9.7480    1.6650    0.4690 ca        1 MOL     -0.032834
    122 C42       -11.3450    0.4570   -1.4520 ca        1 MOL     -0.186460
    123 C43       -11.0790    2.1030    0.3950 ca        1 MOL     -0.186460
    124 C44       -11.8510    1.4910   -0.5810 ca        1 MOL     -0.096328
    125 H51        -4.9720   -0.3680    0.4270 hn        1 MOL      0.215532
    126 H52        -7.4750    0.7980    1.7470 h1        1 MOL     -0.054767
    127 H53        -7.9390   -0.9520    0.1900 hc        1 MOL      0.089411
    128 H54        -7.1760    0.0500   -1.0880 hc        1 MOL      0.089411
    129 H55        -9.5860   -0.6420   -2.0310 ha        1 MOL      0.076568
    130 H56        -9.1010    2.0130    1.2640 ha        1 MOL      0.076568
    131 H57       -11.9210    0.0170   -2.2600 ha        1 MOL      0.125644
    132 H58       -11.4270    2.8600    1.0740 ha        1 MOL      0.125644
    133 H59       -12.8750    1.8240   -0.6340 ha        1 MOL      0.091567
    134 N12        -5.2730    2.5310    1.3670 n         1 MOL      0.053999
    135 C45        -4.7510    3.8920    1.0560 c3        1 MOL      0.088777
    136 C46        -4.0370    3.9650   -0.3230 c         1 MOL      0.237087
    137 O20        -3.9060    5.0780   -0.7810 o         1 MOL     -0.479223
    138 C47        -3.8750    4.3240    2.2110 c3        1 MOL     -0.123853
    139 C48        -4.2570    3.2730    3.2550 c3        1 MOL      0.058533
    140 C49        -4.8140    2.0430    2.6380 c3        1 MOL     -0.298887
    141 H60        -5.6180    4.5460    1.0970 h1        1 MOL      0.067270
    142 H61        -2.8090    4.2460    1.9710 hc        1 MOL      0.067521
    143 H62        -4.1720    5.3280    2.5180 hc        1 MOL      0.067521
    144 H63        -3.3760    2.9500    3.8180 hc        1 MOL     -0.000077
    145 H64        -4.9520    3.6860    3.9860 hc        1 MOL     -0.000077
    146 H65        -3.9450    1.4040    2.4980 h1        1 MOL      0.142929
    147 H66        -5.6310    1.6120    3.2230 h1        1 MOL      0.142929
    148 N13        -3.4690    2.9150   -0.8770 n         1 MOL     -0.085930
    149 C50        -2.9360    2.9620   -2.2680 c3        1 MOL     -0.112386
    150 C51        -3.9420    3.4350   -3.3500 c         1 MOL      0.444300
    151 O21        -3.7000    4.2740   -4.1930 o         1 MOL     -0.529920
    152 C52        -2.5280    1.6170   -2.7250 c3        1 MOL      0.077808
    153 C53        -1.5160    0.8850   -1.8150 c3        1 MOL      0.065905
    154 C54        -2.1320    0.2370   -0.5180 c         1 MOL      0.334785
    155 O22        -1.4150   -0.2740    0.3620 o         1 MOL     -0.500704
    156 O23        -3.3840    0.1770   -0.4330 o         1 MOL     -0.500704
    157 H67        -3.8050    2.0390   -0.5140 hn        1 MOL      0.106430
    158 H68        -2.0460    3.5880   -2.3430 h1        1 MOL      0.105361
    159 H69        -2.0720    1.7960   -3.7000 hc        1 MOL     -0.035614
    160 H70        -3.4020    1.0020   -2.9420 hc        1 MOL     -0.035614
    161 H71        -0.8230    1.6550   -1.4940 hc        1 MOL      0.008328
    162 H72        -0.8890    0.1940   -2.3760 hc        1 MOL      0.008328
    163 N14        -5.1930    3.0080   -3.0860 n         1 MOL     -0.130843
    164 C55        -6.3750    3.3670   -3.9910 c3        1 MOL     -0.177351
    165 H73        -6.7280    2.4690   -4.5000 h1        1 MOL      0.079699
    166 H74        -7.1810    3.7830   -3.3890 h1        1 MOL      0.079699
    167 H75        -6.0560    4.1020   -4.7310 h1        1 MOL      0.079699
    168 H76        -5.3770    2.4440   -2.2620 hn        1 MOL      0.181041
    169 Ca1         0.5690   -1.3070    1.5520 Ca        1 MOL      1.700258
    170 O24         1.8160   -3.3620    2.9250 oh        1 MOL     -0.828734
    171 H77         2.3960   -2.9210    3.5460 ho        1 MOL      0.397177
    172 H78         1.7000   -4.2400    3.3020 ho        1 MOL      0.397177
    173 O25         0.3040    0.8580    3.2140 oh        1 MOL     -0.828734
    174 H79         0.3070    1.7110    2.7690 ho        1 MOL      0.397177
    175 H80         1.1220    0.8410    3.6970 ho        1 MOL      0.397177
    176 O26         1.5120    0.9280    0.2660 oh        1 MOL     -0.828734
    177 H81         2.1350    1.1320   -0.4240 ho        1 MOL      0.397177
    178 H82         1.5570    1.6770    0.8560 ho        1 MOL      0.397177
    179 O27         2.6540   -2.0480    0.2630 oh        1 MOL     -0.828734
    180 H83         2.9650   -2.9520    0.3570 ho        1 MOL      0.397177
    181 H84         3.3570   -1.5150    0.6330 ho        1 MOL      0.397177
@<TRIPOS>BOND
     1    1    2 1   
     2    1    4 1   
     3    1    5 1   
     4    1    6 1   
     5    2    3 2   
     6    2    7 1   
     7    7    8 1   
     8    7   15 1   
     9    8    9 1   
    10    8   11 1   
    11    8   16 1   
    12    9   10 2   
    13    9   19 1   
    14   11   12 1   
    15   11   17 1   
    16   11   18 1   
    17   12   13 1   
    18   12   14 1   
    19   19   20 1   
    20   19   24 1   
    21   20   21 1   
    22   20   23 1   
    23   20   25 1   
    24   21   22 2   
    25   21   29 1   
    26   23   26 1   
    27   23   27 1   
    28   23   28 1   
    29   29   30 1   
    30   29   37 1   
    31   30   31 1   
    32   30   33 1   
    33   30   38 1   
    34   31   32 2   
    35   31   41 1   
    36   33   34 1   
    37   33   39 1   
    38   33   40 1   
    39   34   35 1   
    40   34   36 1   
    41   41   42 1   
    42   41   45 1   
    43   42   43 1   
    44   42   46 1   
    45   42   47 1   
    46   43   44 2   
    47   43   48 1   
    48   48   49 1   
    49   48   56 1   
    50   49   50 1   
    51   49   52 1   
    52   49   57 1   
    53   50   51 2   
    54   50   62 1   
    55   52   53 1   
    56   52   58 1   
    57   52   59 1   
    58   53   54 1   
    59   53   55 2   
    60   54   60 1   
    61   54   61 1   
    62   62   63 1   
    63   62   66 1   
    64   63   64 1   
    65   63   67 1   
    66   63   68 1   
    67   64   65 2   
    68   64   69 1   
    69   69   70 1   
    70   69   76 1   
    71   70   71 1   
    72   70   73 1   
    73   70   77 1   
    74   71   72 2   
    75   71   83 1   
    76   73   74 1   
    77   73   75 1   
    78   73   78 1   
    79   74   80 1   
    80   74   81 1   
    81   74   82 1   
    82   75   79 1   
    83   83   84 1   
    84   83   91 1   
    85   84   85 1   
    86   84   87 1   
    87   84   92 1   
    88   85   86 2   
    89   85  102 1   
    90   87   88 1   
    91   87   89 1   
    92   87   93 1   
    93   88   90 1   
    94   88   94 1   
    95   88   95 1   
    96   89   96 1   
    97   89   97 1   
    98   89   98 1   
    99   90   99 1   
   100   90  100 1   
   101   90  101 1   
   102  102  103 1   
   103  102  110 1   
   104  103  104 1   
   105  103  106 1   
   106  103  111 1   
   107  104  105 2   
   108  104  114 1   
   109  106  107 1   
   110  106  112 1   
   111  106  113 1   
   112  107  108 1   
   113  107  109 1   
   114  114  115 1   
   115  114  125 1   
   116  115  116 1   
   117  115  118 1   
   118  115  126 1   
   119  116  117 2   
   120  116  134 1   
   121  118  119 1   
   122  118  127 1   
   123  118  128 1   
   124  119  120 ar  
   125  119  121 ar  
   126  120  122 ar  
   127  120  129 1   
   128  121  123 ar  
   129  121  130 1   
   130  122  124 ar  
   131  122  131 1   
   132  123  124 ar  
   133  123  132 1   
   134  124  133 1   
   135  134  135 1   
   136  134  140 1   
   137  135  136 1   
   138  135  138 1   
   139  135  141 1   
   140  136  137 2   
   141  136  148 1   
   142  138  139 1   
   143  138  142 1   
   144  138  143 1   
   145  139  140 1   
   146  139  144 1   
   147  139  145 1   
   148  140  146 1   
   149  140  147 1   
   150  148  149 1   
   151  148  157 1   
   152  149  150 1   
   153  149  152 1   
   154  149  158 1   
   155  150  151 2   
   156  150  163 1   
   157  152  153 1   
   158  152  159 1   
   159  152  160 1   
   160  153  154 1   
   161  153  161 1   
   162  153  162 1   
   163  154  155 1   
   164  154  156 1   
   165  163  164 1   
   166  163  168 1   
   167  164  165 1   
   168  164  166 1   
   169  164  167 1   
   170  170  171 1   
   171  170  172 1   
   172  173  174 1   
   173  173  175 1   
   174  176  177 1   
   175  176  178 1   
   176  179  180 1   
   177  179  181 1   
@<TRIPOS>SUBSTRUCTURE
     1 MOL         1 TEMP              0 ****  ****    0 ROOT
