@<TRIPOS>MOLECULE
MOL
  175   173     1     0     0
SMALL
resp


@<TRIPOS>ATOM
      1 C1         -6.2470    7.9680    1.9390 c3        1 MOL     -0.352916
      2 C2         -7.1480    7.1530    0.9930 c         1 MOL      0.588759
      3 O1         -7.0180    7.3160   -0.2390 o         1 MOL     -0.574713
      4 H1         -5.9610    8.9010    1.4520 hc        1 MOL      0.087847
      5 H2         -6.7910    8.1890    2.8570 hc        1 MOL      0.087847
      6 H3         -5.3520    7.3920    2.1760 hc        1 MOL      0.087847
      7 N1         -8.0520    6.2920    1.3980 n         1 MOL     -0.365867
      8 C3         -8.9560    5.6040    0.5160 c3        1 MOL      0.051044
      9 C4         -8.1560    4.5560   -0.3290 c         1 MOL      0.569185
     10 O2         -8.6380    4.1440   -1.4310 o         1 MOL     -0.512226
     11 C5        -10.0470    4.9020    1.2840 c3        1 MOL     -0.155555
     12 C6        -11.1260    4.3170    0.2980 c         1 MOL      0.662872
     13 O3        -11.1140    3.0700    0.2670 o         1 MOL     -0.704991
     14 O4        -11.9090    5.0690   -0.3460 o         1 MOL     -0.704991
     15 H4         -8.0490    6.1110    2.3940 hn        1 MOL      0.237433
     16 H5         -9.4450    6.3180   -0.1440 h1        1 MOL      0.073842
     17 H6        -10.5000    5.6260    1.9520 hc        1 MOL     -0.003119
     18 H7         -9.6990    4.0520    1.8630 hc        1 MOL     -0.003119
     19 N2         -6.9620    4.0840    0.1270 n         1 MOL     -0.525981
     20 C7         -6.1070    3.2010   -0.6380 c3        1 MOL      0.295196
     21 C8         -5.1830    2.3710    0.3470 c         1 MOL      0.514548
     22 O5         -4.5740    2.9870    1.2190 o         1 MOL     -0.549349
     23 C9         -5.4380    4.1120   -1.6500 c3        1 MOL     -0.298461
     24 H8         -6.6930    4.2550    1.0880 hn        1 MOL      0.238847
     25 H9         -6.6780    2.4420   -1.1720 h1        1 MOL      0.003928
     26 H10        -4.8500    4.8690   -1.1410 hc        1 MOL      0.089954
     27 H11        -4.6740    3.5340   -2.1530 hc        1 MOL      0.089954
     28 H12        -6.1300    4.6420   -2.3020 hc        1 MOL      0.089954
     29 N3         -4.8780    1.0930    0.2240 n         1 MOL     -0.405732
     30 C10        -5.3770    0.1320   -0.8200 c3        1 MOL     -0.038412
     31 C11        -5.5370   -1.3250   -0.3370 c         1 MOL      0.503098
     32 O6         -4.7860   -1.7450    0.5490 o         1 MOL     -0.522410
     33 C12        -4.5100    0.1720   -2.0800 c3        1 MOL      0.030574
     34 C13        -3.1380   -0.3580   -1.9020 c         1 MOL      0.568017
     35 O7         -2.3070    0.3720   -1.3720 o         1 MOL     -0.677287
     36 O8         -2.7980   -1.5270   -2.2010 o         1 MOL     -0.677287
     37 H13        -4.2310    0.7380    0.9170 hn        1 MOL      0.276646
     38 H14        -6.4010    0.4830   -0.9400 h1        1 MOL      0.067618
     39 H15        -4.4170    1.1970   -2.4060 hc        1 MOL     -0.013435
     40 H16        -5.0920   -0.3550   -2.8430 hc        1 MOL     -0.013435
     41 N4         -6.3730   -2.0750   -1.0610 n         1 MOL     -0.403814
     42 C14        -6.8200   -3.4670   -0.7820 c3        1 MOL      0.056492
     43 C15        -6.5120   -4.4770   -1.8760 c         1 MOL      0.601706
     44 O9         -7.5110   -4.8920   -2.4630 o         1 MOL     -0.579377
     45 H17        -6.8910   -1.5090   -1.7100 hn        1 MOL      0.308515
     46 H18        -7.8920   -3.5750   -0.6550 h1        1 MOL      0.047849
     47 H19        -6.3460   -3.8060    0.1400 h1        1 MOL      0.047849
     48 N5         -5.3310   -5.0070   -2.1200 n         1 MOL     -0.631376
     49 C16        -4.0480   -4.6030   -1.5070 c3        1 MOL      0.500225
     50 C17        -3.8850   -5.2800   -0.0780 c         1 MOL      0.293893
     51 O10        -3.6740   -6.5310   -0.0080 o         1 MOL     -0.517575
     52 C18        -2.8560   -5.0850   -2.4420 c3        1 MOL     -0.316024
     53 C19        -1.4210   -4.5610   -2.1820 c         1 MOL      0.703016
     54 N6         -0.5270   -4.9140   -3.0450 n         1 MOL     -0.722703
     55 O11        -1.0760   -3.8250   -1.2500 o         1 MOL     -0.656816
     56 H20        -5.3010   -5.6960   -2.8630 hn        1 MOL      0.327350
     57 H21        -3.9410   -3.5190   -1.5360 h1        1 MOL     -0.068498
     58 H22        -3.1980   -4.6940   -3.4050 hc        1 MOL      0.070052
     59 H23        -2.8980   -6.1650   -2.3740 hc        1 MOL      0.070052
     60 H24        -0.8030   -5.5520   -3.7880 hn        1 MOL      0.351121
     61 H25         0.4220   -4.7090   -2.7750 hn        1 MOL      0.351121
     62 N7         -3.8080   -4.4900    0.9630 n         1 MOL     -0.091802
     63 C20        -3.6520   -4.9730    2.3390 c3        1 MOL     -0.283128
     64 C21        -2.2440   -5.3490    2.7620 c         1 MOL      0.534081
     65 O12        -1.9960   -6.0330    3.7130 o         1 MOL     -0.560099
     66 H26        -3.9960   -3.4970    0.9390 hn        1 MOL      0.220124
     67 H27        -4.2050   -5.9030    2.4870 h1        1 MOL      0.112504
     68 H28        -4.1110   -4.2560    3.0120 h1        1 MOL      0.112504
     69 N8         -1.3060   -4.9170    1.9240 n         1 MOL     -0.114500
     70 C22         0.1550   -5.1340    2.1780 c3        1 MOL     -0.104783
     71 C23         0.9380   -3.7840    1.9020 c         1 MOL      0.265939
     72 O13         0.4170   -2.8340    1.3170 o         1 MOL     -0.420943
     73 C24         0.7650   -6.2970    1.3870 c3        1 MOL      0.428818
     74 C25         0.2210   -7.6690    1.7250 c3        1 MOL     -0.446141
     75 O14         0.6650   -6.1220   -0.0120 oh        1 MOL     -0.642318
     76 H29        -1.6200   -4.3510    1.1480 hn        1 MOL      0.138626
     77 H30         0.3620   -5.2720    3.2420 h1        1 MOL      0.055775
     78 H31         1.8440   -6.3250    1.5330 h1        1 MOL     -0.029323
     79 H32         1.1680   -5.3490   -0.3070 ho        1 MOL      0.477524
     80 H33        -0.8210   -7.6520    1.4020 hc        1 MOL      0.114852
     81 H34         0.8000   -8.4450    1.2310 hc        1 MOL      0.114852
     82 H35         0.2320   -7.9000    2.7830 hc        1 MOL      0.114852
     83 N9          2.1820   -3.7460    2.4060 n         1 MOL     -0.154638
     84 C26         3.0310   -2.6290    2.2800 c3        1 MOL      0.021945
     85 C27         4.0640   -2.9200    1.1940 c         1 MOL      0.263018
     86 O15         4.8550   -3.8390    1.3210 o         1 MOL     -0.520068
     87 C28         3.9330   -2.3610    3.5700 c3        1 MOL      0.176873
     88 C29         4.8670   -1.1460    3.3700 c3        1 MOL      0.236091
     89 C30         3.0260   -2.1710    4.8480 c3        1 MOL     -0.232501
     90 C31         5.6450   -0.4310    4.5060 c3        1 MOL     -0.421260
     91 H36         2.5130   -4.4870    3.0120 hn        1 MOL      0.214941
     92 H37         2.5240   -1.6700    2.2110 h1        1 MOL      0.046634
     93 H38         4.5570   -3.2440    3.6940 hc        1 MOL     -0.030806
     94 H39         4.2850   -0.3650    2.8740 hc        1 MOL     -0.042689
     95 H40         5.6380   -1.3850    2.6390 hc        1 MOL     -0.042689
     96 H41         2.4120   -3.0480    5.0990 hc        1 MOL      0.044756
     97 H42         3.6280   -2.1550    5.7620 hc        1 MOL      0.044756
     98 H43         2.4230   -1.2670    4.8570 hc        1 MOL      0.044756
     99 H44         6.2130   -1.1370    5.1060 hc        1 MOL      0.094052
    100 H45         6.2520    0.3190    3.9970 hc        1 MOL      0.094052
    101 H46         4.8990    0.1640    5.0320 hc        1 MOL      0.094052
    102 N10         4.0430   -2.1280    0.1230 n         1 MOL     -0.170583
    103 C32         4.6950   -2.4600   -1.1500 c3        1 MOL      0.071402
    104 C33         5.9590   -1.6500   -1.4940 c         1 MOL      0.479683
    105 O16         6.7260   -1.9070   -2.3950 o         1 MOL     -0.547519
    106 C34         3.7730   -2.6760   -2.3540 c3        1 MOL     -0.231233
    107 C35         2.4230   -3.4070   -2.0040 c         1 MOL      0.728839
    108 O17         2.4660   -4.5960   -1.5370 o         1 MOL     -0.691989
    109 O18         1.3500   -2.7280   -2.2460 o         1 MOL     -0.691989
    110 H47         3.4010   -1.3440    0.2110 hn        1 MOL      0.163716
    111 H48         5.1340   -3.4510   -1.0380 h1        1 MOL      0.093686
    112 H49         4.2760   -3.2810   -3.1100 hc        1 MOL      0.055152
    113 H50         3.5770   -1.7440   -2.8930 hc        1 MOL      0.055152
    114 N11         6.0860   -0.5240   -0.7760 n         1 MOL     -0.320398
    115 C36         6.8520    0.5960   -1.2170 c3        1 MOL      0.080354
    116 C37         6.1600    1.9080   -0.7060 c         1 MOL      0.490537
    117 O19         5.8350    1.9630    0.5130 o         1 MOL     -0.472015
    118 C38         8.2820    0.4000   -0.6280 c3        1 MOL     -0.220819
    119 C39         9.0810    1.6410   -0.7290 ca        1 MOL      0.066815
    120 C40         9.2390    2.5650    0.3000 ca        1 MOL     -0.097965
    121 C41         9.6960    1.9540   -1.9520 ca        1 MOL     -0.097965
    122 C42        10.1560    3.6760    0.1230 ca        1 MOL     -0.144151
    123 C43        10.4950    3.0350   -2.2250 ca        1 MOL     -0.144151
    124 C44        10.7870    3.8500   -1.1470 ca        1 MOL     -0.113048
    125 H51         5.3960   -0.4260   -0.0410 hn        1 MOL      0.143360
    126 H52         6.8060    0.6900   -2.2970 h1        1 MOL      0.049712
    127 H53         8.8740   -0.3860   -1.0800 hc        1 MOL      0.116658
    128 H54         8.1470    0.1100    0.4080 hc        1 MOL      0.116658
    129 H55         8.7830    2.2560    1.2280 ha        1 MOL      0.088138
    130 H56         9.5450    1.2330   -2.7440 ha        1 MOL      0.088138
    131 H57        10.4640    4.2620    0.9740 ha        1 MOL      0.119533
    132 H58        10.9430    3.1460   -3.2020 ha        1 MOL      0.119533
    133 H59        11.5710    4.5890   -1.2860 ha        1 MOL      0.099622
    134 N12         6.0890    2.9660   -1.5400 n         1 MOL     -0.073680
    135 C45         6.1810    4.3860   -1.0780 c3        1 MOL     -0.000331
    136 C46         4.9130    4.9460   -0.4080 c         1 MOL      0.416077
    137 O20         4.7060    6.1580   -0.1010 o         1 MOL     -0.539579
    138 C47         6.6760    5.1890   -2.3120 c3        1 MOL     -0.143020
    139 C48         6.1530    4.3680   -3.4400 c3        1 MOL      0.077114
    140 C49         6.4390    2.9790   -2.9220 c3        1 MOL     -0.266864
    141 H60         6.9640    4.3710   -0.3220 h1        1 MOL      0.063187
    142 H61         6.1180    6.1210   -2.3770 hc        1 MOL      0.069150
    143 H62         7.7680    5.3230   -2.3180 hc        1 MOL      0.069150
    144 H63         5.0810    4.5410   -3.5690 hc        1 MOL      0.025780
    145 H64         6.6710    4.5330   -4.3870 hc        1 MOL      0.025780
    146 H65         5.7120    2.3750   -3.4680 h1        1 MOL      0.108709
    147 H66         7.4530    2.6860   -3.2030 h1        1 MOL      0.108709
    148 N13         3.9360    4.0960   -0.1120 n         1 MOL     -0.209522
    149 C50         2.8470    4.4510    0.7710 c3        1 MOL     -0.044169
    150 C51         3.2840    4.6690    2.1900 c         1 MOL      0.509723
    151 O21         2.5730    5.2770    2.9760 o         1 MOL     -0.532654
    152 C52         1.7040    3.3380    0.7290 c3        1 MOL     -0.327277
    153 C53         2.1370    1.9150    1.1270 c3        1 MOL     -0.049653
    154 C54         1.3460    0.7870    0.3950 c         1 MOL      0.682483
    155 O22         1.9190   -0.2570   -0.0790 o         1 MOL     -0.703244
    156 O23         0.0920    0.7320    0.6030 o         1 MOL     -0.703244
    157 H67         4.0660    3.1200   -0.3350 hn        1 MOL      0.136385
    158 H68         2.3390    5.3810    0.4790 h1        1 MOL      0.125780
    159 H69         1.4270    3.2440   -0.3220 hc        1 MOL      0.128341
    160 H70         0.8670    3.6310    1.3530 hc        1 MOL      0.128341
    161 H71         2.0500    1.6990    2.1950 hc        1 MOL      0.056991
    162 H72         3.1870    1.7680    0.8800 hc        1 MOL      0.056991
    163 N14         4.5430    4.2690    2.4520 n         1 MOL     -0.229837
    164 C55         5.2380    4.5550    3.7710 c3        1 MOL     -0.132128
    165 H73         5.9290    3.7430    4.0000 h1        1 MOL      0.075093
    166 H74         5.7890    5.4910    3.6960 h1        1 MOL      0.075093
    167 H75         4.4940    4.6320    4.5640 h1        1 MOL      0.075093
    168 H76         5.0200    3.6810    1.7900 hn        1 MOL      0.172742
    169 Ca1        -0.4170   -1.3780   -0.8930 Ca        1 MOL      1.682454
    170 O24        -2.2320   -1.5670    1.1570 oh        1 MOL     -0.887931
    171 H77        -3.1730   -1.6650    0.9590 ho        1 MOL      0.425391
    172 H78        -2.1850   -0.7910    1.7200 ho        1 MOL      0.425391
    173 O25         0.3310    0.2020   -2.9250 oh        1 MOL     -0.887931
    174 H79        -0.3240    0.9040   -2.8810 ho        1 MOL      0.425391
    175 H80         0.5720    0.1710   -3.8430 ho        1 MOL      0.425391
@<TRIPOS>BOND
     1    1    2 1   
     2    1    4 1   
     3    1    5 1   
     4    1    6 1   
     5    2    3 2   
     6    2    7 1   
     7    7    8 1   
     8    7   15 1   
     9    8    9 1   
    10    8   11 1   
    11    8   16 1   
    12    9   10 2   
    13    9   19 1   
    14   11   12 1   
    15   11   17 1   
    16   11   18 1   
    17   12   13 1   
    18   12   14 1   
    19   19   20 1   
    20   19   24 1   
    21   20   21 1   
    22   20   23 1   
    23   20   25 1   
    24   21   22 2   
    25   21   29 1   
    26   23   26 1   
    27   23   27 1   
    28   23   28 1   
    29   29   30 1   
    30   29   37 1   
    31   30   31 1   
    32   30   33 1   
    33   30   38 1   
    34   31   32 2   
    35   31   41 1   
    36   33   34 1   
    37   33   39 1   
    38   33   40 1   
    39   34   35 1   
    40   34   36 1   
    41   41   42 1   
    42   41   45 1   
    43   42   43 1   
    44   42   46 1   
    45   42   47 1   
    46   43   44 2   
    47   43   48 1   
    48   48   49 1   
    49   48   56 1   
    50   49   50 1   
    51   49   52 1   
    52   49   57 1   
    53   50   51 2   
    54   50   62 1   
    55   52   53 1   
    56   52   58 1   
    57   52   59 1   
    58   53   54 1   
    59   53   55 2   
    60   54   60 1   
    61   54   61 1   
    62   62   63 1   
    63   62   66 1   
    64   63   64 1   
    65   63   67 1   
    66   63   68 1   
    67   64   65 2   
    68   64   69 1   
    69   69   70 1   
    70   69   76 1   
    71   70   71 1   
    72   70   73 1   
    73   70   77 1   
    74   71   72 2   
    75   71   83 1   
    76   73   74 1   
    77   73   75 1   
    78   73   78 1   
    79   74   80 1   
    80   74   81 1   
    81   74   82 1   
    82   75   79 1   
    83   83   84 1   
    84   83   91 1   
    85   84   85 1   
    86   84   87 1   
    87   84   92 1   
    88   85   86 2   
    89   85  102 1   
    90   87   88 1   
    91   87   89 1   
    92   87   93 1   
    93   88   90 1   
    94   88   94 1   
    95   88   95 1   
    96   89   96 1   
    97   89   97 1   
    98   89   98 1   
    99   90   99 1   
   100   90  100 1   
   101   90  101 1   
   102  102  103 1   
   103  102  110 1   
   104  103  104 1   
   105  103  106 1   
   106  103  111 1   
   107  104  105 2   
   108  104  114 1   
   109  106  107 1   
   110  106  112 1   
   111  106  113 1   
   112  107  108 1   
   113  107  109 1   
   114  114  115 1   
   115  114  125 1   
   116  115  116 1   
   117  115  118 1   
   118  115  126 1   
   119  116  117 2   
   120  116  134 1   
   121  118  119 1   
   122  118  127 1   
   123  118  128 1   
   124  119  120 ar  
   125  119  121 ar  
   126  120  122 ar  
   127  120  129 1   
   128  121  123 ar  
   129  121  130 1   
   130  122  124 ar  
   131  122  131 1   
   132  123  124 ar  
   133  123  132 1   
   134  124  133 1   
   135  134  135 1   
   136  134  140 1   
   137  135  136 1   
   138  135  138 1   
   139  135  141 1   
   140  136  137 2   
   141  136  148 1   
   142  138  139 1   
   143  138  142 1   
   144  138  143 1   
   145  139  140 1   
   146  139  144 1   
   147  139  145 1   
   148  140  146 1   
   149  140  147 1   
   150  148  149 1   
   151  148  157 1   
   152  149  150 1   
   153  149  152 1   
   154  149  158 1   
   155  150  151 2   
   156  150  163 1   
   157  152  153 1   
   158  152  159 1   
   159  152  160 1   
   160  153  154 1   
   161  153  161 1   
   162  153  162 1   
   163  154  155 1   
   164  154  156 1   
   165  163  164 1   
   166  163  168 1   
   167  164  165 1   
   168  164  166 1   
   169  164  167 1   
   170  170  171 1   
   171  170  172 1   
   172  173  174 1   
   173  173  175 1   
@<TRIPOS>SUBSTRUCTURE
     1 MOL         1 TEMP              0 ****  ****    0 ROOT
