@<TRIPOS>MOLECULE
MOL
  178   175     1     0     0
SMALL
resp


@<TRIPOS>ATOM
      1 C1         -8.1470   -6.8050   -2.9040 c3        1 MOL     -0.266523
      2 C2         -7.0290   -5.8730   -2.3330 c         1 MOL      0.603712
      3 O1         -6.1270   -6.2910   -1.6490 o         1 MOL     -0.585039
      4 H1         -8.2920   -7.6510   -2.2310 hc        1 MOL      0.068308
      5 H2         -9.0790   -6.2460   -2.9890 hc        1 MOL      0.068308
      6 H3         -7.8500   -7.1690   -3.8860 hc        1 MOL      0.068308
      7 N1         -7.0790   -4.5410   -2.3520 n         1 MOL     -0.523499
      8 C3         -8.1280   -3.7230   -2.8730 c3        1 MOL      0.217541
      9 C4         -8.8130   -3.1620   -1.5820 c         1 MOL      0.429311
     10 O2         -9.7710   -2.4300   -1.7200 o         1 MOL     -0.563910
     11 C5         -7.5060   -2.6260   -3.7960 c3        1 MOL     -0.349327
     12 C6         -6.3150   -1.8140   -3.2730 c         1 MOL      0.823375
     13 O3         -5.7450   -0.9160   -3.9300 o         1 MOL     -0.780918
     14 O4         -6.0200   -1.8870   -2.0900 o         1 MOL     -0.780918
     15 H4         -6.2680   -4.0470   -2.0180 hn        1 MOL      0.356129
     16 H5         -8.8800   -4.1620   -3.5380 h1        1 MOL      0.062524
     17 H6         -8.2770   -1.8920   -4.0330 hc        1 MOL      0.079653
     18 H7         -7.2420   -3.1590   -4.7130 hc        1 MOL      0.079653
     19 N2         -8.4110   -3.5380   -0.3740 n         1 MOL     -0.381148
     20 C7         -9.0630   -3.3070    0.9290 c3        1 MOL      0.072305
     21 C8         -8.9060   -1.8770    1.4950 c         1 MOL      0.492486
     22 O5         -9.5680   -1.5280    2.5000 o         1 MOL     -0.576017
     23 C9         -8.3620   -4.3160    1.8430 c3        1 MOL     -0.400282
     24 H8         -7.5790   -4.0990   -0.3220 hn        1 MOL      0.277773
     25 H9        -10.1530   -3.3030    0.8400 h1        1 MOL      0.086240
     26 H10        -8.3830   -5.3720    1.5410 hc        1 MOL      0.124502
     27 H11        -7.3290   -4.0070    2.0100 hc        1 MOL      0.124502
     28 H12        -8.9510   -4.2190    2.7580 hc        1 MOL      0.124502
     29 N3         -8.1720   -1.0210    0.8590 n         1 MOL     -0.239482
     30 C10        -7.8100    0.2840    1.4380 c3        1 MOL     -0.014635
     31 C11        -7.5580    1.3470    0.3170 c         1 MOL      0.341144
     32 O6         -7.3270    0.9740   -0.8600 o         1 MOL     -0.453516
     33 C12        -6.5650    0.1310    2.3620 c3        1 MOL     -0.095419
     34 C13        -5.3910   -0.5870    1.6240 c         1 MOL      0.699640
     35 O7         -5.1550   -0.5010    0.4250 o         1 MOL     -0.662365
     36 O8         -4.5220   -1.0740    2.3840 o         1 MOL     -0.662365
     37 H13        -7.7400   -1.2850   -0.0100 hn        1 MOL      0.235228
     38 H14        -8.5750    0.6270    2.1370 h1        1 MOL      0.060622
     39 H15        -6.8380   -0.4860    3.2220 hc        1 MOL      0.047903
     40 H16        -6.2610    1.1360    2.6310 hc        1 MOL      0.047903
     41 N4         -7.3520    2.5940    0.6890 n         1 MOL     -0.248802
     42 C14        -7.1540    3.8180   -0.1640 c3        1 MOL     -0.145037
     43 C15        -5.6790    3.9480   -0.6230 c         1 MOL      0.559105
     44 O9         -5.0440    2.9440   -0.9900 o         1 MOL     -0.574013
     45 H17        -7.4900    2.8180    1.6710 hn        1 MOL      0.265032
     46 H18        -7.4550    4.7530    0.3040 h1        1 MOL      0.087183
     47 H19        -7.7280    3.7060   -1.0850 h1        1 MOL      0.087183
     48 N5         -5.1610    5.1810   -0.4570 n         1 MOL     -0.556855
     49 C16        -3.6910    5.4430   -0.3910 c3        1 MOL      0.112514
     50 C17        -2.9830    4.4350    0.4550 c         1 MOL      0.729196
     51 O10        -3.3470    4.0730    1.5860 o         1 MOL     -0.564644
     52 C18        -3.4680    6.8820    0.1190 c3        1 MOL     -0.415610
     53 C19        -4.0200    8.0740   -0.6800 c         1 MOL      0.806430
     54 N6         -5.3420    8.1980   -0.7960 n         1 MOL     -0.867070
     55 O11        -3.3360    8.9650   -1.1270 o         1 MOL     -0.560265
     56 H20        -5.7570    5.8690   -0.0200 hn        1 MOL      0.309839
     57 H21        -3.3290    5.3620   -1.4200 h1        1 MOL      0.074811
     58 H22        -2.3940    7.0400    0.2150 hc        1 MOL      0.121347
     59 H23        -3.9160    6.9920    1.1080 hc        1 MOL      0.121347
     60 H24        -5.9640    7.7600   -0.1330 hn        1 MOL      0.369315
     61 H25        -5.5880    9.0600   -1.2590 hn        1 MOL      0.369315
     62 N7         -1.9300    3.8270   -0.0540 n         1 MOL     -0.606265
     63 C20        -1.3030    2.6010    0.6150 c3        1 MOL      0.081962
     64 C21        -2.2150    1.3390    0.7480 c         1 MOL      0.459840
     65 O12        -2.7400    0.8840   -0.2720 o         1 MOL     -0.576541
     66 H26        -1.7370    3.9200   -1.0470 hn        1 MOL      0.310618
     67 H27        -1.0140    2.8650    1.6340 h1        1 MOL      0.114593
     68 H28        -0.4380    2.2910    0.0180 h1        1 MOL      0.114593
     69 N8         -2.3760    0.7590    1.9350 n         1 MOL     -0.255085
     70 C22        -1.5090    0.9290    3.2000 c3        1 MOL     -0.204058
     71 C23        -0.0620    0.4840    3.0910 c         1 MOL      0.413419
     72 O13         0.7430    1.1120    3.7320 o         1 MOL     -0.465002
     73 C24        -2.1340    0.1790    4.3590 c3        1 MOL      0.540557
     74 C25        -1.4980    0.4000    5.6960 c3        1 MOL     -0.372389
     75 O14        -3.4940    0.4100    4.3610 oh        1 MOL     -0.681975
     76 H29        -3.0050   -0.0240    1.8720 hn        1 MOL      0.206162
     77 H30        -1.5230    1.9560    3.5540 h1        1 MOL      0.122583
     78 H31        -2.1150   -0.9020    4.2390 h1        1 MOL     -0.011384
     79 H32        -3.8320    0.1750    3.4990 ho        1 MOL      0.342157
     80 H33        -1.0630    1.3810    5.8700 hc        1 MOL      0.091736
     81 H34        -2.2830    0.2460    6.4320 hc        1 MOL      0.091736
     82 H35        -0.6970   -0.3180    5.8850 hc        1 MOL      0.091736
     83 N9          0.1590   -0.4390    2.1180 n         1 MOL     -0.352387
     84 C26         1.4480   -1.0940    2.0140 c3        1 MOL      0.065851
     85 C27         1.8780   -1.0030    0.5380 c         1 MOL      0.527242
     86 O15         1.0620   -1.3070   -0.2610 o         1 MOL     -0.568874
     87 C28         1.4540   -2.5700    2.5630 c3        1 MOL      0.078561
     88 C29         0.8080   -2.8470    3.9000 c3        1 MOL      0.026355
     89 C30         2.8290   -3.1020    2.5900 c3        1 MOL     -0.172230
     90 C31         0.9030   -4.2390    4.5480 c3        1 MOL     -0.240551
     91 H36        -0.5700   -0.7270    1.4850 hn        1 MOL      0.235754
     92 H37         2.0760   -0.4820    2.6570 h1        1 MOL      0.034571
     93 H38         0.9450   -3.1000    1.7600 hc        1 MOL     -0.017877
     94 H39        -0.2420   -2.6130    3.7350 hc        1 MOL      0.007789
     95 H40         1.1410   -2.0720    4.5970 hc        1 MOL      0.007789
     96 H41         3.3050   -2.8200    1.6500 hc        1 MOL      0.066000
     97 H42         3.2940   -2.6270    3.4570 hc        1 MOL      0.066000
     98 H43         2.8750   -4.1970    2.6310 hc        1 MOL      0.066000
     99 H44         0.5540   -5.0270    3.8820 hc        1 MOL      0.058840
    100 H45         1.8920   -4.3970    4.9690 hc        1 MOL      0.058840
    101 H46         0.2380   -4.3020    5.4060 hc        1 MOL      0.058840
    102 N10         3.0660   -0.3610    0.2340 n         1 MOL     -0.466843
    103 C32         4.1120    0.0850    1.0840 c3        1 MOL      0.216218
    104 C33         5.4040    0.3360    0.2450 c         1 MOL      0.489175
    105 O16         5.3950    0.1160   -1.0010 o         1 MOL     -0.515125
    106 C34         3.7340    1.4940    1.7020 c3        1 MOL      0.030696
    107 C35         3.2640    2.6390    0.8070 c         1 MOL      0.641754
    108 O17         2.9480    3.7150    1.3420 o         1 MOL     -0.716045
    109 O18         3.0180    2.5060   -0.3990 o         1 MOL     -0.716045
    110 H47         3.2700   -0.1920   -0.7430 hn        1 MOL      0.291404
    111 H48         4.4020   -0.5780    1.8940 h1        1 MOL      0.006461
    112 H49         4.6380    1.8820    2.1860 hc        1 MOL     -0.057077
    113 H50         2.9720    1.3810    2.4730 hc        1 MOL     -0.057077
    114 N11         6.4630    0.7710    1.0070 n         1 MOL     -0.630595
    115 C36         7.6780    1.2340    0.3500 c3        1 MOL      0.466134
    116 C37         9.0200    0.5280    0.9020 c         1 MOL      0.250601
    117 O19         9.2300    0.6120    2.1130 o         1 MOL     -0.458258
    118 C38         7.8030    2.7920    0.4900 c3        1 MOL     -0.098886
    119 C39         8.5090    3.4160   -0.7060 ca        1 MOL     -0.075359
    120 C40         9.8730    3.6500   -0.6980 ca        1 MOL     -0.057798
    121 C41         7.7270    3.6310   -1.8710 ca        1 MOL     -0.057798
    122 C42        10.6170    3.8590   -1.8670 ca        1 MOL     -0.210602
    123 C43         8.4310    3.9950   -3.0140 ca        1 MOL     -0.210602
    124 C44         9.8430    3.9930   -3.0620 ca        1 MOL     -0.036990
    125 H51         6.3770    0.8330    2.0160 hn        1 MOL      0.352024
    126 H52         7.5880    1.0330   -0.7150 h1        1 MOL      0.053405
    127 H53         8.2540    3.0220    1.4510 hc        1 MOL      0.042771
    128 H54         6.8390    3.2910    0.5610 hc        1 MOL      0.042771
    129 H55        10.3640    3.4680    0.2450 ha        1 MOL      0.116138
    130 H56         6.6480    3.5340   -1.8110 ha        1 MOL      0.116138
    131 H57        11.7000    3.8980   -1.8880 ha        1 MOL      0.127012
    132 H58         7.8290    4.1690   -3.9010 ha        1 MOL      0.127012
    133 H59        10.3940    4.2540   -3.9520 ha        1 MOL      0.066606
    134 N12         9.9960    0.1550   -0.0110 n         1 MOL     -0.207767
    135 C45         9.8420   -0.1650   -1.4770 c3        1 MOL      0.032460
    136 C46         8.7470   -1.0850   -1.9280 c         1 MOL      0.487924
    137 O20         8.1220   -0.8330   -2.9320 o         1 MOL     -0.515975
    138 C47        11.2600   -0.7020   -1.8210 c3        1 MOL     -0.102929
    139 C48        11.8640   -1.2210   -0.5700 c3        1 MOL      0.026674
    140 C49        11.3230   -0.2550    0.4270 c3        1 MOL      0.107309
    141 H60         9.6970    0.7780   -2.0070 h1        1 MOL      0.044733
    142 H61        11.2010   -1.4550   -2.6160 hc        1 MOL      0.030608
    143 H62        11.8300    0.1820   -2.0800 hc        1 MOL      0.030608
    144 H63        11.5360   -2.2540   -0.4520 hc        1 MOL      0.005483
    145 H64        12.9420   -1.1410   -0.5370 hc        1 MOL      0.005483
    146 H65        11.4640   -0.5280    1.4690 h1        1 MOL      0.006554
    147 H66        11.9420    0.6430    0.4110 h1        1 MOL      0.006554
    148 N13         8.5610   -2.1480   -1.0880 n         1 MOL     -0.440109
    149 C50         7.3800   -3.0520   -1.2340 c3        1 MOL      0.228054
    150 C51         7.7210   -4.2080   -2.2530 c         1 MOL      0.378778
    151 O21         8.3760   -5.1510   -1.8820 o         1 MOL     -0.553582
    152 C52         6.9920   -3.8480    0.0350 c3        1 MOL     -0.050507
    153 C53         6.4780   -3.0820    1.2640 c3        1 MOL      0.092089
    154 C54         6.4220   -3.9070    2.5560 c         1 MOL      0.667227
    155 O22         6.6660   -3.2100    3.5440 o         1 MOL     -0.726190
    156 O23         6.1250   -5.1440    2.5240 o         1 MOL     -0.726190
    157 H67         9.2150   -2.3690   -0.3420 hn        1 MOL      0.328590
    158 H68         6.4790   -2.5270   -1.5390 h1        1 MOL      0.056843
    159 H69         7.8010   -4.4420    0.4430 hc        1 MOL      0.002574
    160 H70         6.1420   -4.5020   -0.1590 hc        1 MOL      0.002574
    161 H71         5.5600   -2.5440    1.0690 hc        1 MOL     -0.106100
    162 H72         7.1900   -2.2640    1.3670 hc        1 MOL     -0.106100
    163 N14         7.2160   -4.2940   -3.5080 n         1 MOL     -0.318554
    164 C55         6.2640   -3.3440   -4.1670 c3        1 MOL     -0.156987
    165 H73         6.6530   -2.3290   -4.0890 h1        1 MOL      0.076273
    166 H74         6.1530   -3.6110   -5.2170 h1        1 MOL      0.076273
    167 H75         5.2940   -3.4000   -3.6730 h1        1 MOL      0.076273
    168 H76         7.5280   -5.0460   -4.1050 hn        1 MOL      0.256527
    169 Ca1        -4.7270    0.4860   -2.0000 Ca        1 MOL      1.799768
    170 O24        -2.7930    1.7310   -3.1770 oh        1 MOL     -0.883371
    171 H77        -2.8710    2.2630   -3.9620 ho        1 MOL      0.435269
    172 H78        -1.8700    1.4670   -3.1500 ho        1 MOL      0.435269
    173 O25        -2.8340   -1.3260   -2.1380 oh        1 MOL     -0.883371
    174 H79        -2.8970   -2.1730   -1.7110 ho        1 MOL      0.435269
    175 H80        -1.9240   -1.0580   -1.9990 ho        1 MOL      0.435269
    176 O26        -6.0250    2.1970   -3.7580 oh        1 MOL     -0.883371
    177 H81        -5.7320    2.5460   -4.6010 ho        1 MOL      0.435269
    178 H82        -6.6220    2.8650   -3.4220 ho        1 MOL      0.435269
@<TRIPOS>BOND
     1    1    2 1   
     2    1    4 1   
     3    1    5 1   
     4    1    6 1   
     5    2    3 2   
     6    2    7 1   
     7    7    8 1   
     8    7   15 1   
     9    8    9 1   
    10    8   11 1   
    11    8   16 1   
    12    9   10 2   
    13    9   19 1   
    14   11   12 1   
    15   11   17 1   
    16   11   18 1   
    17   12   13 1   
    18   12   14 1   
    19   19   20 1   
    20   19   24 1   
    21   20   21 1   
    22   20   23 1   
    23   20   25 1   
    24   21   22 2   
    25   21   29 1   
    26   23   26 1   
    27   23   27 1   
    28   23   28 1   
    29   29   30 1   
    30   29   37 1   
    31   30   31 1   
    32   30   33 1   
    33   30   38 1   
    34   31   32 2   
    35   31   41 1   
    36   33   34 1   
    37   33   39 1   
    38   33   40 1   
    39   34   35 1   
    40   34   36 1   
    41   41   42 1   
    42   41   45 1   
    43   42   43 1   
    44   42   46 1   
    45   42   47 1   
    46   43   44 2   
    47   43   48 1   
    48   48   49 1   
    49   48   56 1   
    50   49   50 1   
    51   49   52 1   
    52   49   57 1   
    53   50   51 2   
    54   50   62 1   
    55   52   53 1   
    56   52   58 1   
    57   52   59 1   
    58   53   54 1   
    59   53   55 2   
    60   54   60 1   
    61   54   61 1   
    62   62   63 1   
    63   62   66 1   
    64   63   64 1   
    65   63   67 1   
    66   63   68 1   
    67   64   65 2   
    68   64   69 1   
    69   69   70 1   
    70   69   76 1   
    71   70   71 1   
    72   70   73 1   
    73   70   77 1   
    74   71   72 2   
    75   71   83 1   
    76   73   74 1   
    77   73   75 1   
    78   73   78 1   
    79   74   80 1   
    80   74   81 1   
    81   74   82 1   
    82   75   79 1   
    83   83   84 1   
    84   83   91 1   
    85   84   85 1   
    86   84   87 1   
    87   84   92 1   
    88   85   86 2   
    89   85  102 1   
    90   87   88 1   
    91   87   89 1   
    92   87   93 1   
    93   88   90 1   
    94   88   94 1   
    95   88   95 1   
    96   89   96 1   
    97   89   97 1   
    98   89   98 1   
    99   90   99 1   
   100   90  100 1   
   101   90  101 1   
   102  102  103 1   
   103  102  110 1   
   104  103  104 1   
   105  103  106 1   
   106  103  111 1   
   107  104  105 2   
   108  104  114 1   
   109  106  107 1   
   110  106  112 1   
   111  106  113 1   
   112  107  108 1   
   113  107  109 1   
   114  114  115 1   
   115  114  125 1   
   116  115  116 1   
   117  115  118 1   
   118  115  126 1   
   119  116  117 2   
   120  116  134 1   
   121  118  119 1   
   122  118  127 1   
   123  118  128 1   
   124  119  120 ar  
   125  119  121 ar  
   126  120  122 ar  
   127  120  129 1   
   128  121  123 ar  
   129  121  130 1   
   130  122  124 ar  
   131  122  131 1   
   132  123  124 ar  
   133  123  132 1   
   134  124  133 1   
   135  134  135 1   
   136  134  140 1   
   137  135  136 1   
   138  135  138 1   
   139  135  141 1   
   140  136  137 2   
   141  136  148 1   
   142  138  139 1   
   143  138  142 1   
   144  138  143 1   
   145  139  140 1   
   146  139  144 1   
   147  139  145 1   
   148  140  146 1   
   149  140  147 1   
   150  148  149 1   
   151  148  157 1   
   152  149  150 1   
   153  149  152 1   
   154  149  158 1   
   155  150  151 2   
   156  150  163 1   
   157  152  153 1   
   158  152  159 1   
   159  152  160 1   
   160  153  154 1   
   161  153  161 1   
   162  153  162 1   
   163  154  155 1   
   164  154  156 1   
   165  163  164 1   
   166  163  168 1   
   167  164  165 1   
   168  164  166 1   
   169  164  167 1   
   170  170  171 1   
   171  170  172 1   
   172  173  174 1   
   173  173  175 1   
   174  176  177 1   
   175  176  178 1   
@<TRIPOS>SUBSTRUCTURE
     1 MOL         1 TEMP              0 ****  ****    0 ROOT
