@<TRIPOS>MOLECULE
MOL
  192   187     1     0     0
SMALL
resp


@<TRIPOS>ATOM
      1 C1         -6.2140   -3.6520    4.4590 c3        1 MOL     -0.307354
      2 C2         -5.5730   -2.7680    3.3730 c         1 MOL      0.722004
      3 O1         -5.6000   -3.2090    2.2110 o         1 MOL     -0.584415
      4 H1         -5.4320   -4.0870    5.0810 hc        1 MOL      0.076034
      5 H2         -6.8760   -3.0450    5.0780 hc        1 MOL      0.076034
      6 H3         -6.7880   -4.4500    3.9870 hc        1 MOL      0.076034
      7 N1         -5.1800   -1.5290    3.5940 n         1 MOL     -0.550805
      8 C3         -4.7420   -0.6390    2.4880 c3        1 MOL      0.664876
      9 C4         -3.2540   -0.8950    2.0980 c         1 MOL      0.014022
     10 O2         -2.7960   -0.1640    1.2770 o         1 MOL     -0.241988
     11 C5         -4.9070    0.8290    2.7490 c3        1 MOL     -0.337825
     12 C6         -6.3350    1.2150    3.2100 c         1 MOL      0.689412
     13 O3         -6.6440    1.0460    4.4430 o         1 MOL     -0.703264
     14 O4         -7.0940    1.6010    2.3080 o         1 MOL     -0.703264
     15 H4         -5.0320   -1.0800    4.4890 hn        1 MOL      0.248246
     16 H5         -5.3150   -0.9760    1.6210 h1        1 MOL     -0.037174
     17 H6         -4.7440    1.3660    1.8180 hc        1 MOL      0.022343
     18 H7         -4.1470    1.1380    3.4720 hc        1 MOL      0.022343
     19 N2         -2.5040   -1.8140    2.7780 n         1 MOL     -0.383195
     20 C7         -1.0920   -1.8810    2.6900 c3        1 MOL      0.268813
     21 C8         -0.5690   -2.9030    1.6440 c         1 MOL      0.572650
     22 O5         -0.9540   -4.0600    1.7000 o         1 MOL     -0.567155
     23 C9         -0.5840   -2.0030    4.1140 c3        1 MOL     -0.131010
     24 C10        -0.4930   -0.6210    4.8280 c3        1 MOL     -0.174843
     25 C11        -0.0590   -0.8180    6.3230 c3        1 MOL      0.014173
     26 C12        -0.0540    0.4440    7.1760 c3        1 MOL      0.124297
     27 N3          0.4790    0.1570    8.5210 n4        1 MOL     -0.374093
     28 H8         -2.9900   -2.5650    3.2550 hn        1 MOL      0.235231
     29 H9         -0.7050   -0.9070    2.3800 h1        1 MOL      0.031052
     30 H10         0.4070   -2.4560    4.0390 hc        1 MOL      0.050585
     31 H11        -1.1940   -2.6980    4.6970 hc        1 MOL      0.050585
     32 H12        -1.4570   -0.1240    4.7340 hc        1 MOL      0.072750
     33 H13         0.2650   -0.0120    4.3200 hc        1 MOL      0.072750
     34 H14         0.9660   -1.1930    6.3590 hc        1 MOL      0.026116
     35 H15        -0.6750   -1.5340    6.8600 hc        1 MOL      0.026116
     36 H16        -1.0560    0.8380    7.3530 hx        1 MOL      0.060168
     37 H17         0.5410    1.1850    6.6440 hx        1 MOL      0.060168
     38 H18         0.5630    0.9680    9.1100 hn        1 MOL      0.313288
     39 H19        -0.0890   -0.5240    8.9960 hn        1 MOL      0.313288
     40 H20         1.4380   -0.1510    8.4180 hn        1 MOL      0.313288
     41 N4          0.4720   -2.5820    0.9340 n         1 MOL     -0.477147
     42 C13         1.0630   -1.3260    0.5290 c3        1 MOL     -0.119142
     43 C14         1.6670   -0.4220    1.6390 c         1 MOL      0.441236
     44 O6          1.0030    0.5570    1.9780 o         1 MOL     -0.497224
     45 C15         0.2020   -0.7310   -0.6110 c3        1 MOL      0.090087
     46 C16        -0.0140   -1.6750   -1.7550 c         1 MOL      0.730946
     47 O7          0.8590   -2.5470   -2.0240 o         1 MOL     -0.848278
     48 O8         -0.9710   -1.5190   -2.5350 o         1 MOL     -0.848278
     49 H21         0.8810   -3.3210    0.3790 hn        1 MOL      0.269874
     50 H22         2.0110   -1.6360    0.1010 h1        1 MOL      0.129123
     51 H23         0.7370    0.1180   -1.0180 hc        1 MOL      0.069905
     52 H24        -0.7720   -0.3120   -0.3500 hc        1 MOL      0.069905
     53 N5          2.8320   -0.6910    2.2450 n         1 MOL     -0.371291
     54 C17         3.6710   -1.8710    1.8590 c3        1 MOL      0.072526
     55 C18         4.7330   -2.0670    2.8830 c         1 MOL      0.537936
     56 O9          4.6880   -1.5600    4.0170 o         1 MOL     -0.553981
     57 H25         3.1660    0.0010    2.9050 hn        1 MOL      0.311675
     58 H26         4.0250   -1.7030    0.8430 h1        1 MOL      0.049561
     59 H27         3.1450   -2.8300    1.8530 h1        1 MOL      0.049561
     60 N6          5.6650   -3.0130    2.6150 n         1 MOL     -0.487142
     61 C19         5.9630   -3.7570    1.3680 c3        1 MOL     -0.001913
     62 C20         6.6410   -2.8420    0.2620 c         1 MOL      0.564497
     63 O10         7.4020   -1.9240    0.5780 o         1 MOL     -0.470446
     64 C21         6.7250   -5.0780    1.6300 c3        1 MOL      0.045580
     65 C22         7.6870   -4.9760    2.7510 c         1 MOL      0.634305
     66 O11         8.7540   -4.3020    2.4640 o         1 MOL     -0.673947
     67 O12         7.4030   -5.5990    3.8120 o         1 MOL     -0.673947
     68 H28         6.2690   -3.2610    3.3880 hn        1 MOL      0.327589
     69 H29         5.0430   -4.0550    0.8640 h1        1 MOL      0.019483
     70 H30         7.2610   -5.3780    0.7270 hc        1 MOL     -0.028089
     71 H31         5.9530   -5.8260    1.7890 hc        1 MOL     -0.028089
     72 N7          6.6280   -3.1750   -1.0430 n         1 MOL     -0.455367
     73 C23         7.4090   -2.4170   -2.0760 c3        1 MOL     -0.094149
     74 C24         6.8600   -1.0930   -2.5840 c         1 MOL      0.459455
     75 O13         7.5900   -0.2430   -3.1430 o         1 MOL     -0.547365
     76 H32         5.7870   -3.6920   -1.2940 hn        1 MOL      0.220888
     77 H33         7.7000   -3.0390   -2.9190 h1        1 MOL      0.135722
     78 H34         8.4000   -2.2060   -1.6650 h1        1 MOL      0.135722
     79 N8          5.5550   -0.8550   -2.4400 n         1 MOL     -0.432459
     80 C25         4.8650    0.4480   -2.6800 c3        1 MOL     -0.015704
     81 C26         5.1830    1.4080   -1.5430 c         1 MOL      0.693403
     82 O14         4.9730    1.0200   -0.3940 o         1 MOL     -0.534731
     83 C27         3.3460    0.2690   -2.7820 c3        1 MOL      0.248014
     84 C28         2.9530   -0.6180   -3.9260 c3        1 MOL     -0.214176
     85 O15         2.6850    1.5080   -3.0420 oh        1 MOL     -0.588136
     86 H35         5.0630   -1.6970   -2.1620 hn        1 MOL      0.272033
     87 H36         5.2290    0.8660   -3.6190 h1        1 MOL      0.098080
     88 H37         2.9260   -0.1130   -1.8460 h1        1 MOL      0.013405
     89 H38         2.1040    1.6680   -2.2940 ho        1 MOL      0.355091
     90 H39         1.8860   -0.6260   -4.1290 hc        1 MOL      0.052698
     91 H40         3.3860   -0.2470   -4.8480 hc        1 MOL      0.052698
     92 H41         3.2700   -1.6630   -3.8740 hc        1 MOL      0.052698
     93 N9          5.5600    2.6500   -1.7940 n         1 MOL     -0.529457
     94 C29         5.7970    3.5890   -0.7020 c3        1 MOL      0.069582
     95 C30         4.5720    4.1540   -0.0660 c         1 MOL      0.482476
     96 O16         4.6150    4.4620    1.0860 o         1 MOL     -0.505197
     97 C31         6.8370    4.6420   -1.2840 c3        1 MOL      0.200430
     98 C32         7.3830    5.5780   -0.2230 c3        1 MOL     -0.052401
     99 C33         6.2400    5.5190   -2.3570 c3        1 MOL     -0.313261
    100 C34         8.1310    4.8140    0.8760 c3        1 MOL     -0.203375
    101 H42         6.0340    2.8670   -2.6610 hn        1 MOL      0.266010
    102 H43         6.3210    3.0800    0.0990 h1        1 MOL      0.064113
    103 H44         7.6400    4.0510   -1.7230 hc        1 MOL      0.038587
    104 H45         6.5860    6.1410    0.2680 hc        1 MOL      0.034752
    105 H46         8.0900    6.2220   -0.7470 hc        1 MOL      0.034752
    106 H47         5.4600    6.1960   -2.0020 hc        1 MOL      0.057431
    107 H48         7.0050    6.1500   -2.8190 hc        1 MOL      0.057431
    108 H49         5.7620    4.9630   -3.1720 hc        1 MOL      0.057431
    109 H50         7.4760    4.3140    1.5880 hc        1 MOL      0.054657
    110 H51         8.8570    4.1520    0.4210 hc        1 MOL      0.054657
    111 H52         8.6280    5.5560    1.5100 hc        1 MOL      0.054657
    112 N10         3.4420    4.2450   -0.8070 n         1 MOL     -0.317550
    113 C35         2.1270    4.7480   -0.4440 c3        1 MOL     -0.035243
    114 C36         1.1500    3.5990   -0.3010 c         1 MOL      0.737794
    115 O17         1.4440    2.5620   -0.8310 o         1 MOL     -0.541710
    116 C37         1.5580    5.8100   -1.4810 c3        1 MOL      0.445322
    117 C38         1.6590    5.2430   -2.8770 c3        1 MOL     -0.338501
    118 O18         2.3210    6.9510   -1.3870 oh        1 MOL     -0.645763
    119 H53         3.5550    3.9060   -1.7500 hn        1 MOL      0.150465
    120 H54         2.2100    5.1860    0.5420 h1        1 MOL      0.076079
    121 H55         0.5060    5.9960   -1.2940 h1        1 MOL     -0.012234
    122 H56         2.7880    7.0360   -2.2200 ho        1 MOL      0.396223
    123 H57         1.2850    5.9380   -3.6230 hc        1 MOL      0.082357
    124 H58         2.7270    5.1130   -3.0780 hc        1 MOL      0.082357
    125 H59         1.2400    4.2470   -3.0430 hc        1 MOL      0.082357
    126 N11         0.0500    3.8060    0.4370 n         1 MOL     -0.732472
    127 C39        -1.0770    2.8600    0.7520 c3        1 MOL      0.370074
    128 C40        -2.2510    3.1270   -0.2160 c         1 MOL      0.428341
    129 O19        -2.1960    4.1030   -0.9990 o         1 MOL     -0.550903
    130 C41        -1.4190    2.9520    2.2030 c3        1 MOL      0.108238
    131 C42        -2.1690    4.1930    2.6560 c3        1 MOL     -0.152921
    132 O20        -0.2070    2.8590    2.9550 oh        1 MOL     -0.642294
    133 H60         0.0270    4.6330    1.0280 hn        1 MOL      0.338419
    134 H61        -0.7830    1.8270    0.5720 h1        1 MOL     -0.088379
    135 H62        -2.0470    2.1170    2.5120 h1        1 MOL      0.151678
    136 H63         0.4420    2.1990    2.6830 ho        1 MOL      0.398778
    137 H64        -2.5350    3.9500    3.6610 hc        1 MOL      0.050357
    138 H65        -1.6920    5.1740    2.6400 hc        1 MOL      0.050357
    139 H66        -3.1450    4.2950    2.1720 hc        1 MOL      0.050357
    140 N12        -3.2100    2.1720   -0.3680 n         1 MOL     -0.189777
    141 C43        -4.3940    2.2710   -1.2920 c3        1 MOL     -0.006333
    142 C44        -4.8980    0.9730   -1.9390 c         1 MOL      0.457984
    143 O21        -5.7160    1.0160   -2.9050 o         1 MOL     -0.559738
    144 C45        -5.5630    3.0360   -0.5640 c3        1 MOL      0.273139
    145 C46        -6.1940    4.0790   -1.4700 c3        1 MOL     -0.422725
    146 C47        -7.3030    4.8900   -0.7300 c3        1 MOL      0.158940
    147 C48        -8.5340    3.9750   -0.5810 c3        1 MOL     -0.008424
    148 N13        -9.7270    4.7460   -0.1300 n4        1 MOL     -0.416901
    149 H67        -3.2210    1.4560    0.3520 hn        1 MOL     -0.092214
    150 H68        -3.9830    2.8180   -2.1430 h1        1 MOL      0.080027
    151 H69        -5.2520    3.5100    0.3710 hc        1 MOL      0.010613
    152 H70        -6.3270    2.3300   -0.2380 hc        1 MOL      0.010613
    153 H71        -6.5270    3.5440   -2.3600 hc        1 MOL      0.097988
    154 H72        -5.4180    4.8150   -1.6710 hc        1 MOL      0.097988
    155 H73        -7.6500    5.7190   -1.3350 hc        1 MOL     -0.001836
    156 H74        -6.9560    5.3650    0.1790 hc        1 MOL     -0.001836
    157 H75        -8.2980    3.3040    0.2460 hx        1 MOL      0.117790
    158 H76        -8.7550    3.4530   -1.5050 hx        1 MOL      0.117790
    159 H77       -10.4710    4.0690   -0.0370 hn        1 MOL      0.334237
    160 H78        -9.7080    5.2190    0.7580 hn        1 MOL      0.334237
    161 H79       -10.0660    5.3570   -0.8620 hn        1 MOL      0.334237
    162 N14        -4.4620   -0.1930   -1.3790 n         1 MOL     -0.113685
    163 C49        -4.9420   -1.4610   -1.8210 c3        1 MOL     -0.271234
    164 C50        -6.5310   -1.6520   -1.7590 c         1 MOL      0.478610
    165 O22        -7.1890   -1.3440   -0.7820 o         1 MOL     -0.497519
    166 C51        -4.1750   -2.6160   -1.1250 c3        1 MOL      0.839254
    167 C52        -4.6760   -3.9630   -1.5370 c3        1 MOL     -1.069240
    168 C53        -4.2700   -4.2220   -3.0060 c         1 MOL      0.939310
    169 O23        -5.1170   -4.1570   -3.9630 o         1 MOL     -0.747132
    170 O24        -3.0680   -4.4540   -3.2520 o         1 MOL     -0.747132
    171 H80        -3.9830   -0.2460   -0.4990 hn        1 MOL      0.075147
    172 H81        -4.6540   -1.6840   -2.8450 h1        1 MOL      0.075304
    173 H82        -4.3850   -2.4680   -0.0700 hc        1 MOL     -0.151141
    174 H83        -3.1210   -2.7040   -1.3590 hc        1 MOL     -0.151141
    175 H84        -5.7720   -3.9660   -1.5380 hc        1 MOL      0.260407
    176 H85        -4.4100   -4.7920   -0.8800 hc        1 MOL      0.260407
    177 N15        -7.0250   -2.1590   -2.8910 n         1 MOL     -0.315588
    178 C54        -8.4290   -2.4920   -3.2450 c3        1 MOL     -0.057973
    179 H86        -8.7560   -1.8570   -4.0670 h1        1 MOL      0.056574
    180 H87        -8.4900   -3.5380   -3.5480 h1        1 MOL      0.056574
    181 H88        -9.0710   -2.3260   -2.3800 h1        1 MOL      0.056574
    182 H89        -6.3420   -2.3170   -3.6140 hn        1 MOL      0.293923
    183 Ca1        -0.4880   -3.6770   -3.9000 Ca        1 MOL      1.778095
    184 O25        -1.9560   -1.9940   -5.5670 oh        1 MOL     -0.873425
    185 H90        -1.3750   -1.2960   -5.8490 ho        1 MOL      0.436375
    186 H91        -2.8330   -1.6240   -5.6140 ho        1 MOL      0.436375
    187 O26        -1.4530   -5.4520   -5.9290 oh        1 MOL     -0.873425
    188 H92        -2.1670   -5.3350   -6.5480 ho        1 MOL      0.436375
    189 H93        -0.7580   -5.8850   -6.4270 ho        1 MOL      0.436375
    190 O27         1.0230   -2.7100   -5.8830 oh        1 MOL     -0.873425
    191 H94         0.6380   -1.8310   -5.9810 ho        1 MOL      0.436375
    192 H95         1.6550   -2.7720   -6.5980 ho        1 MOL      0.436375
@<TRIPOS>BOND
     1    1    2 1   
     2    1    4 1   
     3    1    5 1   
     4    1    6 1   
     5    2    3 2   
     6    2    7 1   
     7    7    8 1   
     8    7   15 1   
     9    8    9 1   
    10    8   11 1   
    11    8   16 1   
    12    9   10 2   
    13    9   19 1   
    14   11   12 1   
    15   11   17 1   
    16   11   18 1   
    17   12   13 1   
    18   12   14 1   
    19   19   20 1   
    20   19   28 1   
    21   20   21 1   
    22   20   23 1   
    23   20   29 1   
    24   21   22 2   
    25   21   41 1   
    26   23   24 1   
    27   23   30 1   
    28   23   31 1   
    29   24   25 1   
    30   24   32 1   
    31   24   33 1   
    32   25   26 1   
    33   25   34 1   
    34   25   35 1   
    35   26   27 1   
    36   26   36 1   
    37   26   37 1   
    38   27   38 1   
    39   27   39 1   
    40   27   40 1   
    41   41   42 1   
    42   41   49 1   
    43   42   43 1   
    44   42   45 1   
    45   42   50 1   
    46   43   44 2   
    47   43   53 1   
    48   45   46 1   
    49   45   51 1   
    50   45   52 1   
    51   46   47 1   
    52   46   48 1   
    53   53   54 1   
    54   53   57 1   
    55   54   55 1   
    56   54   58 1   
    57   54   59 1   
    58   55   56 2   
    59   55   60 1   
    60   60   61 1   
    61   60   68 1   
    62   61   62 1   
    63   61   64 1   
    64   61   69 1   
    65   62   63 2   
    66   62   72 1   
    67   64   65 1   
    68   64   70 1   
    69   64   71 1   
    70   65   66 1   
    71   65   67 1   
    72   72   73 1   
    73   72   76 1   
    74   73   74 1   
    75   73   77 1   
    76   73   78 1   
    77   74   75 2   
    78   74   79 1   
    79   79   80 1   
    80   79   86 1   
    81   80   81 1   
    82   80   83 1   
    83   80   87 1   
    84   81   82 2   
    85   81   93 1   
    86   83   84 1   
    87   83   85 1   
    88   83   88 1   
    89   84   90 1   
    90   84   91 1   
    91   84   92 1   
    92   85   89 1   
    93   93   94 1   
    94   93  101 1   
    95   94   95 1   
    96   94   97 1   
    97   94  102 1   
    98   95   96 2   
    99   95  112 1   
   100   97   98 1   
   101   97   99 1   
   102   97  103 1   
   103   98  100 1   
   104   98  104 1   
   105   98  105 1   
   106   99  106 1   
   107   99  107 1   
   108   99  108 1   
   109  100  109 1   
   110  100  110 1   
   111  100  111 1   
   112  112  113 1   
   113  112  119 1   
   114  113  114 1   
   115  113  116 1   
   116  113  120 1   
   117  114  115 2   
   118  114  126 1   
   119  116  117 1   
   120  116  118 1   
   121  116  121 1   
   122  117  123 1   
   123  117  124 1   
   124  117  125 1   
   125  118  122 1   
   126  126  127 1   
   127  126  133 1   
   128  127  128 1   
   129  127  130 1   
   130  127  134 1   
   131  128  129 2   
   132  128  140 1   
   133  130  131 1   
   134  130  132 1   
   135  130  135 1   
   136  131  137 1   
   137  131  138 1   
   138  131  139 1   
   139  132  136 1   
   140  140  141 1   
   141  140  149 1   
   142  141  142 1   
   143  141  144 1   
   144  141  150 1   
   145  142  143 2   
   146  142  162 1   
   147  144  145 1   
   148  144  151 1   
   149  144  152 1   
   150  145  146 1   
   151  145  153 1   
   152  145  154 1   
   153  146  147 1   
   154  146  155 1   
   155  146  156 1   
   156  147  148 1   
   157  147  157 1   
   158  147  158 1   
   159  148  159 1   
   160  148  160 1   
   161  148  161 1   
   162  162  163 1   
   163  162  171 1   
   164  163  164 1   
   165  163  166 1   
   166  163  172 1   
   167  164  165 2   
   168  164  177 1   
   169  166  167 1   
   170  166  173 1   
   171  166  174 1   
   172  167  168 1   
   173  167  175 1   
   174  167  176 1   
   175  168  169 1   
   176  168  170 1   
   177  177  178 1   
   178  177  182 1   
   179  178  179 1   
   180  178  180 1   
   181  178  181 1   
   182  184  185 1   
   183  184  186 1   
   184  187  188 1   
   185  187  189 1   
   186  190  191 1   
   187  190  192 1   
@<TRIPOS>SUBSTRUCTURE
     1 MOL         1 TEMP              0 ****  ****    0 ROOT
