@<TRIPOS>MOLECULE
MOL
  191   184     1     0     0
SMALL
resp


@<TRIPOS>ATOM
      1 C1          0.9210    0.6150    2.5580 c3        1 MOL     -0.274328
      2 C2          2.1400    0.5400    1.5770 c         1 MOL      0.392483
      3 O1          2.1850    1.0070    0.4150 o         1 MOL     -0.516160
      4 H1          0.1750   -0.1250    2.2680 hc        1 MOL      0.086296
      5 H2          1.2580    0.4100    3.5750 hc        1 MOL      0.086296
      6 H3          0.4800    1.6100    2.5150 hc        1 MOL      0.086296
      7 N1          3.2320    0.0010    2.1250 n         1 MOL     -0.208844
      8 C3          4.5710    0.0590    1.5360 c3        1 MOL      0.021975
      9 C4          5.1780   -1.3150    1.1260 c         1 MOL      0.468292
     10 O2          6.3310   -1.4430    0.7300 o         1 MOL     -0.441494
     11 C5          5.4210    0.7540    2.5910 c3        1 MOL     -0.043724
     12 C6          5.6990    0.0300    3.8760 c         1 MOL      0.631817
     13 O3          5.0130   -0.9700    4.2560 o         1 MOL     -0.680141
     14 O4          6.6270    0.4960    4.6000 o         1 MOL     -0.680141
     15 H4          3.1170   -0.4030    3.0440 hn        1 MOL      0.204099
     16 H5          4.5120    0.7010    0.6510 h1        1 MOL      0.057193
     17 H6          4.7890    1.5620    2.9550 hc        1 MOL      0.027022
     18 H7          6.3130    1.1560    2.1100 hc        1 MOL      0.027022
     19 N2          4.4220   -2.3710    1.3700 n         1 MOL     -0.539002
     20 C7          4.8300   -3.8200    1.1190 c3        1 MOL      0.100927
     21 C8          5.2310   -3.9710   -0.4000 c         1 MOL      0.450702
     22 O5          6.3970   -4.1040   -0.7630 o         1 MOL     -0.514095
     23 C9          5.8630   -4.2630    2.2280 c3        1 MOL     -0.039432
     24 C10         5.2030   -4.6530    3.5460 c3        1 MOL      0.104799
     25 C11         6.1720   -5.0530    4.6700 c3        1 MOL     -0.391140
     26 C12         7.2320   -3.9420    5.0500 c3        1 MOL      0.018023
     27 N3          6.5920   -2.8130    5.6960 n4        1 MOL     -0.086813
     28 H8          3.5710   -2.2110    1.8830 hn        1 MOL      0.300876
     29 H9          3.9780   -4.4930    1.2180 h1        1 MOL      0.066846
     30 H10         6.4560   -3.3820    2.4570 hc        1 MOL      0.052525
     31 H11         6.5230   -5.0180    1.8120 hc        1 MOL      0.052525
     32 H12         4.6410   -5.5660    3.3320 hc        1 MOL     -0.004668
     33 H13         4.6130   -3.7930    3.8670 hc        1 MOL     -0.004668
     34 H14         6.6440   -5.9380    4.2370 hc        1 MOL      0.132809
     35 H15         5.5790   -5.4160    5.5110 hc        1 MOL      0.132809
     36 H16         7.8380   -3.5990    4.2120 hx        1 MOL      0.081174
     37 H17         7.9000   -4.4250    5.7710 hx        1 MOL      0.081174
     38 H18         7.1280   -2.3580    6.4110 hn        1 MOL      0.241079
     39 H19         6.3190   -2.0450    5.0960 hn        1 MOL      0.241079
     40 H20         5.7560   -3.1450    6.1730 hn        1 MOL      0.241079
     41 N4          4.1750   -3.8640   -1.2160 n         1 MOL     -0.437843
     42 C13         4.3240   -3.9150   -2.6910 c3        1 MOL      0.170460
     43 C14         4.8550   -2.5740   -3.2110 c         1 MOL      0.490004
     44 O6          4.3910   -2.1270   -4.2440 o         1 MOL     -0.582171
     45 C15         2.9390   -4.3520   -3.3080 c3        1 MOL     -0.492308
     46 C16         1.7430   -3.5060   -2.9960 c         1 MOL      0.962690
     47 O7          1.8760   -2.4920   -2.2820 o         1 MOL     -0.798596
     48 O8          0.6170   -3.8360   -3.4480 o         1 MOL     -0.798596
     49 H21         3.2390   -3.7690   -0.8550 hn        1 MOL      0.291551
     50 H22         5.1160   -4.6220   -2.9490 h1        1 MOL      0.053330
     51 H23         2.6610   -5.3420   -2.9580 hc        1 MOL      0.132807
     52 H24         3.0560   -4.2880   -4.3920 hc        1 MOL      0.132807
     53 N5          5.7270   -1.8390   -2.5550 n         1 MOL     -0.241383
     54 C17         6.2630   -0.4640   -2.9430 c3        1 MOL     -0.198904
     55 C18         7.3340    0.0050   -1.9640 c         1 MOL      0.564216
     56 O9          8.3440   -0.6530   -1.7100 o         1 MOL     -0.511734
     57 H25         6.1120   -2.2730   -1.7200 hn        1 MOL      0.218566
     58 H26         5.3800    0.1490   -2.8320 h1        1 MOL      0.104133
     59 H27         6.7280   -0.4780   -3.9340 h1        1 MOL      0.104133
     60 N6          7.1320    1.1500   -1.2980 n         1 MOL     -0.532709
     61 C19         6.0700    2.2150   -1.5480 c3        1 MOL      0.314201
     62 C20         5.8280    2.8990   -0.2000 c         1 MOL      0.414930
     63 O10         6.7520    3.1460    0.5950 o         1 MOL     -0.487320
     64 C21         6.5380    3.2030   -2.6240 c3        1 MOL     -0.560258
     65 C22         7.2180    4.4850   -2.2030 c         1 MOL      0.747219
     66 N7          8.5310    4.5540   -2.1670 n         1 MOL     -0.831538
     67 O11         6.5820    5.4580   -1.7510 o         1 MOL     -0.576801
     68 H28         7.9180    1.3670   -0.6980 hn        1 MOL      0.300369
     69 H29         5.1680    1.7960   -2.0030 h1        1 MOL      0.091564
     70 H30         5.6720    3.5770   -3.1630 hc        1 MOL      0.147013
     71 H31         7.2780    2.7060   -3.2590 hc        1 MOL      0.147013
     72 H32         9.0170    3.6740   -2.2640 hn        1 MOL      0.392252
     73 H33         8.9060    5.4010   -1.7610 hn        1 MOL      0.392252
     74 N8          4.6520    3.4330    0.0530 n         1 MOL     -0.325713
     75 C23         3.4800    3.4740   -0.8590 c3        1 MOL      0.013917
     76 C24         2.2550    4.2030   -0.3210 c         1 MOL      0.628687
     77 O12         2.4490    5.0040    0.6290 o         1 MOL     -0.532369
     78 H34         4.4260    3.8270    0.9530 hn        1 MOL      0.274277
     79 H35         3.2660    2.4490   -1.1760 h1        1 MOL      0.019993
     80 H36         3.7000    3.8890   -1.8340 h1        1 MOL      0.019993
     81 N9          1.0600    4.0540   -0.8740 n         1 MOL     -0.629934
     82 C25        -0.2090    4.6850   -0.3650 c3        1 MOL      0.334748
     83 C26        -1.2940    3.6410    0.1410 c         1 MOL      0.514947
     84 O13        -1.3410    2.4890   -0.3080 o         1 MOL     -0.604210
     85 C27        -0.8750    5.6920   -1.4090 c3        1 MOL     -0.050884
     86 C28        -1.8420    6.5910   -0.7480 ca        1 MOL     -0.035746
     87 C29        -3.1840    6.5570   -1.1480 ca        1 MOL     -0.070440
     88 C30        -1.4250    7.4210    0.3110 ca        1 MOL     -0.070440
     89 C31        -4.1520    7.4010   -0.6420 ca        1 MOL     -0.308163
     90 C32        -2.4070    8.3060    0.8190 ca        1 MOL     -0.308163
     91 C33        -3.7760    8.2960    0.3830 ca        1 MOL      0.381659
     92 O14        -4.6460    9.2220    0.8590 oh        1 MOL     -0.483222
     93 H37         0.9860    3.3940   -1.6460 hn        1 MOL      0.299819
     94 H38         0.1440    5.2310    0.5120 h1        1 MOL     -0.012859
     95 H39        -1.3450    5.0570   -2.1670 hc        1 MOL      0.035156
     96 H40        -0.1440    6.3160   -1.9370 hc        1 MOL      0.035156
     97 H41        -3.4140    5.8920   -1.9650 ha        1 MOL      0.122157
     98 H42        -0.4250    7.5070    0.7090 ha        1 MOL      0.122157
     99 H43        -5.1330    7.3650   -1.0890 ha        1 MOL      0.156360
    100 H44        -2.1350    8.9480    1.6530 ha        1 MOL      0.156360
    101 H45        -4.2830    9.6730    1.6270 ho        1 MOL      0.359478
    102 N10        -2.2450    4.0830    0.9140 n         1 MOL     -0.293607
    103 C34        -3.3530    3.3280    1.6040 c3        1 MOL     -0.200091
    104 C35        -4.4640    2.9950    0.5840 c         1 MOL      0.490591
    105 O15        -4.4640    3.2280   -0.5890 o         1 MOL     -0.494697
    106 C36        -3.9520    4.0390    2.8750 c3        1 MOL      0.194152
    107 C37        -2.9550    3.9870    4.0520 c3        1 MOL     -0.018093
    108 C38        -4.4320    5.4910    2.5600 c3        1 MOL     -0.320315
    109 C39        -3.5580    4.3660    5.4170 c3        1 MOL     -0.311394
    110 H46        -2.1190    5.0140    1.2880 hn        1 MOL      0.165820
    111 H47        -2.9210    2.3690    1.8990 h1        1 MOL      0.150080
    112 H48        -4.8230    3.4400    3.1120 hc        1 MOL      0.011475
    113 H49        -2.0750    4.6030    3.8700 hc        1 MOL      0.038487
    114 H50        -2.5710    2.9630    4.0430 hc        1 MOL      0.038487
    115 H51        -3.4870    6.0170    2.6570 hc        1 MOL      0.091645
    116 H52        -4.9100    5.4680    1.5840 hc        1 MOL      0.091645
    117 H53        -5.0500    5.8790    3.3690 hc        1 MOL      0.091645
    118 H54        -3.4970    5.4520    5.5310 hc        1 MOL      0.088258
    119 H55        -4.5870    4.0220    5.5370 hc        1 MOL      0.088258
    120 H56        -2.8840    3.9700    6.1760 hc        1 MOL      0.088258
    121 N11        -5.5010    2.2920    1.0830 n         1 MOL     -0.194141
    122 C40        -6.7070    1.7330    0.4510 c3        1 MOL     -0.229462
    123 C41        -6.4280    0.5030   -0.4810 c         1 MOL      0.807239
    124 O16        -5.3870   -0.1310   -0.2790 o         1 MOL     -0.555787
    125 C42        -7.7510    1.3520    1.4840 c3        1 MOL      0.215952
    126 O17        -7.1360    0.8710    2.6740 oh        1 MOL     -0.561648
    127 H57        -5.3730    2.0610    2.0620 hn        1 MOL      0.160737
    128 H58        -7.1570    2.4860   -0.1930 h1        1 MOL      0.100103
    129 H59        -8.4760    0.6150    1.1210 h1        1 MOL      0.011539
    130 H60        -8.3470    2.1780    1.8620 h1        1 MOL      0.011539
    131 H61        -7.7150    0.9490    3.4450 ho        1 MOL      0.403231
    132 N12        -7.3770    0.2630   -1.4190 n         1 MOL     -0.731629
    133 C43        -7.3190   -0.8590   -2.4180 c3        1 MOL      0.302837
    134 C44        -7.1210   -2.2580   -1.9010 c         1 MOL      0.301396
    135 O18        -6.1390   -2.9180   -2.2670 o         1 MOL     -0.417140
    136 C45        -6.3200   -0.4230   -3.5510 c3        1 MOL     -0.064530
    137 H62        -8.1700    0.8730   -1.5170 hn        1 MOL      0.348466
    138 H63        -8.2840   -0.8730   -2.9270 h1        1 MOL      0.020572
    139 H64        -6.4320   -1.0620   -4.4160 hc        1 MOL      0.006509
    140 H65        -6.6390    0.5390   -3.9430 hc        1 MOL      0.006509
    141 H66        -5.3150   -0.5350   -3.1400 hc        1 MOL      0.006509
    142 N13        -7.9780   -2.7980   -0.9820 n         1 MOL     -0.312689
    143 C46        -8.0350   -4.1220   -0.2960 c3        1 MOL      0.208411
    144 C47        -6.6730   -4.7330   -0.0680 c         1 MOL      0.444209
    145 O19        -6.5110   -5.7730   -0.6730 o         1 MOL     -0.465296
    146 C48        -9.0480   -5.0610   -1.0340 c3        1 MOL     -0.421751
    147 H67        -8.7730   -2.2080   -0.7890 hn        1 MOL      0.223754
    148 H68        -8.4600   -3.8060    0.6560 h1        1 MOL      0.007702
    149 H69        -9.4390   -5.9150   -0.4680 hc        1 MOL      0.125125
    150 H70        -9.9080   -4.4660   -1.3330 hc        1 MOL      0.125125
    151 H71        -8.5540   -5.3330   -1.9630 hc        1 MOL      0.125125
    152 N14        -5.8370   -4.0610    0.7510 n         1 MOL     -0.480727
    153 C49        -4.5720   -4.5310    1.2640 c3        1 MOL      0.244451
    154 C50        -4.6100   -5.0010    2.7440 c         1 MOL      0.323584
    155 O20        -3.9620   -6.0350    3.0220 o         1 MOL     -0.479731
    156 C51        -3.5240   -3.3750    1.0760 c3        1 MOL      0.409336
    157 C52        -2.0350   -3.6810    1.2400 c3        1 MOL     -0.280515
    158 C53        -1.4070   -4.1480   -0.0310 c         1 MOL      0.687599
    159 O21        -1.0660   -3.2650   -0.8530 o         1 MOL     -0.697132
    160 O22        -1.3740   -5.3830   -0.2450 o         1 MOL     -0.697132
    161 H72        -6.1990   -3.1870    1.1050 hn        1 MOL      0.224886
    162 H73        -4.2360   -5.4000    0.7080 h1        1 MOL      0.096592
    163 H74        -3.7500   -2.6160    1.8260 hc        1 MOL     -0.137349
    164 H75        -3.7320   -2.9540    0.0830 hc        1 MOL     -0.137349
    165 H76        -1.9390   -4.4800    1.9860 hc        1 MOL      0.029882
    166 H77        -1.5460   -2.7540    1.5190 hc        1 MOL      0.029882
    167 N15        -5.5330   -4.4760    3.5830 n         1 MOL     -0.287919
    168 C54        -5.8440   -4.9310    4.9770 c3        1 MOL     -0.111216
    169 H78        -6.8220   -5.4110    4.9910 h1        1 MOL      0.082861
    170 H79        -5.0860   -5.6410    5.3060 h1        1 MOL      0.082861
    171 H80        -5.8530   -4.0710    5.6470 h1        1 MOL      0.082861
    172 H81        -6.0560   -3.6860    3.2300 hn        1 MOL      0.199554
    173 Ca1        -0.9180   -1.6900   -2.6950 Ca        1 MOL      1.692218
    174 O23         1.3890   -0.3760   -4.0570 oh        1 MOL     -0.838058
    175 H82         2.0850   -0.2670   -3.4140 ho        1 MOL      0.418758
    176 H83         1.8020   -0.8140   -4.7980 ho        1 MOL      0.418758
    177 O24        -3.4230   -2.6770   -2.8460 oh        1 MOL     -0.838058
    178 H84        -4.2800   -2.9220   -2.4820 ho        1 MOL      0.418758
    179 H85        -3.5870   -2.5980   -3.7920 ho        1 MOL      0.418758
    180 O25        -1.6380    0.6870   -3.8990 oh        1 MOL     -0.838058
    181 H86        -1.8470    0.7040   -4.8380 ho        1 MOL      0.418758
    182 H87        -2.1860    1.3690   -3.5200 ho        1 MOL      0.418758
    183 O26        -1.3040   -2.2260   -5.3540 oh        1 MOL     -0.838058
    184 H88        -0.8310   -1.9180   -6.1300 ho        1 MOL      0.418758
    185 H89        -2.1000   -2.6290   -5.7000 ho        1 MOL      0.418758
    186 O27         0.0100    0.2880   -1.2140 oh        1 MOL     -0.838058
    187 H90         0.7970    0.6630   -0.8170 ho        1 MOL      0.418758
    188 H91        -0.6310    0.9980   -1.2030 ho        1 MOL      0.418758
    189 O28        -2.8440   -0.1570   -1.2040 oh        1 MOL     -0.838058
    190 H92        -2.8760    0.8010   -1.1970 ho        1 MOL      0.418758
    191 H93        -3.7020   -0.4240   -0.8760 ho        1 MOL      0.418758
@<TRIPOS>BOND
     1    1    2 1   
     2    1    4 1   
     3    1    5 1   
     4    1    6 1   
     5    2    3 2   
     6    2    7 1   
     7    7    8 1   
     8    7   15 1   
     9    8    9 1   
    10    8   11 1   
    11    8   16 1   
    12    9   10 2   
    13    9   19 1   
    14   11   12 1   
    15   11   17 1   
    16   11   18 1   
    17   12   13 1   
    18   12   14 1   
    19   19   20 1   
    20   19   28 1   
    21   20   21 1   
    22   20   23 1   
    23   20   29 1   
    24   21   22 2   
    25   21   41 1   
    26   23   24 1   
    27   23   30 1   
    28   23   31 1   
    29   24   25 1   
    30   24   32 1   
    31   24   33 1   
    32   25   26 1   
    33   25   34 1   
    34   25   35 1   
    35   26   27 1   
    36   26   36 1   
    37   26   37 1   
    38   27   38 1   
    39   27   39 1   
    40   27   40 1   
    41   41   42 1   
    42   41   49 1   
    43   42   43 1   
    44   42   45 1   
    45   42   50 1   
    46   43   44 2   
    47   43   53 1   
    48   45   46 1   
    49   45   51 1   
    50   45   52 1   
    51   46   47 1   
    52   46   48 1   
    53   53   54 1   
    54   53   57 1   
    55   54   55 1   
    56   54   58 1   
    57   54   59 1   
    58   55   56 2   
    59   55   60 1   
    60   60   61 1   
    61   60   68 1   
    62   61   62 1   
    63   61   64 1   
    64   61   69 1   
    65   62   63 2   
    66   62   74 1   
    67   64   65 1   
    68   64   70 1   
    69   64   71 1   
    70   65   66 1   
    71   65   67 2   
    72   66   72 1   
    73   66   73 1   
    74   74   75 1   
    75   74   78 1   
    76   75   76 1   
    77   75   79 1   
    78   75   80 1   
    79   76   77 2   
    80   76   81 1   
    81   81   82 1   
    82   81   93 1   
    83   82   83 1   
    84   82   85 1   
    85   82   94 1   
    86   83   84 2   
    87   83  102 1   
    88   85   86 1   
    89   85   95 1   
    90   85   96 1   
    91   86   87 ar  
    92   86   88 ar  
    93   87   89 ar  
    94   87   97 1   
    95   88   90 ar  
    96   88   98 1   
    97   89   91 ar  
    98   89   99 1   
    99   90   91 ar  
   100   90  100 1   
   101   91   92 1   
   102   92  101 1   
   103  102  103 1   
   104  102  110 1   
   105  103  104 1   
   106  103  106 1   
   107  103  111 1   
   108  104  105 2   
   109  104  121 1   
   110  106  107 1   
   111  106  108 1   
   112  106  112 1   
   113  107  109 1   
   114  107  113 1   
   115  107  114 1   
   116  108  115 1   
   117  108  116 1   
   118  108  117 1   
   119  109  118 1   
   120  109  119 1   
   121  109  120 1   
   122  121  122 1   
   123  121  127 1   
   124  122  123 1   
   125  122  125 1   
   126  122  128 1   
   127  123  124 2   
   128  123  132 1   
   129  125  126 1   
   130  125  129 1   
   131  125  130 1   
   132  126  131 1   
   133  132  133 1   
   134  132  137 1   
   135  133  134 1   
   136  133  136 1   
   137  133  138 1   
   138  134  135 2   
   139  134  142 1   
   140  136  139 1   
   141  136  140 1   
   142  136  141 1   
   143  142  143 1   
   144  142  147 1   
   145  143  144 1   
   146  143  146 1   
   147  143  148 1   
   148  144  145 2   
   149  144  152 1   
   150  146  149 1   
   151  146  150 1   
   152  146  151 1   
   153  152  153 1   
   154  152  161 1   
   155  153  154 1   
   156  153  156 1   
   157  153  162 1   
   158  154  155 2   
   159  154  167 1   
   160  156  157 1   
   161  156  163 1   
   162  156  164 1   
   163  157  158 1   
   164  157  165 1   
   165  157  166 1   
   166  158  159 1   
   167  158  160 1   
   168  167  168 1   
   169  167  172 1   
   170  168  169 1   
   171  168  170 1   
   172  168  171 1   
   173  174  175 1   
   174  174  176 1   
   175  177  178 1   
   176  177  179 1   
   177  180  181 1   
   178  180  182 1   
   179  183  184 1   
   180  183  185 1   
   181  186  187 1   
   182  186  188 1   
   183  189  190 1   
   184  189  191 1   
@<TRIPOS>SUBSTRUCTURE
     1 MOL         1 TEMP              0 ****  ****    0 ROOT
