@<TRIPOS>MOLECULE
MOL
  175   173     1     0     0
SMALL
resp


@<TRIPOS>ATOM
      1 C1         -6.5030    7.7900    2.0350 c3        1 MOL     -0.384784
      2 C2         -7.1700    7.0590    0.8480 c         1 MOL      0.655330
      3 O1         -6.8360    7.4610   -0.2550 o         1 MOL     -0.577865
      4 H1         -6.2660    8.8130    1.7440 hc        1 MOL      0.088311
      5 H2         -7.1860    7.8030    2.8840 hc        1 MOL      0.088311
      6 H3         -5.5870    7.2700    2.3130 hc        1 MOL      0.088311
      7 N1         -8.0530    6.1020    1.0570 n         1 MOL     -0.338063
      8 C3         -8.9860    5.3740    0.1020 c3        1 MOL     -0.040122
      9 C4         -8.2950    4.1190   -0.5320 c         1 MOL      0.602336
     10 O2         -8.7580    3.5470   -1.5710 o         1 MOL     -0.546208
     11 C5        -10.2740    5.0070    0.8630 c3        1 MOL     -0.187067
     12 C6        -11.4790    4.8760   -0.0210 c         1 MOL      0.713543
     13 O3        -12.2020    3.8600   -0.0270 o         1 MOL     -0.719333
     14 O4        -11.9570    5.9460   -0.5240 o         1 MOL     -0.719333
     15 H4         -8.2130    5.8640    2.0180 hn        1 MOL      0.230040
     16 H5         -9.2690    6.1000   -0.6570 h1        1 MOL      0.086068
     17 H6        -10.3940    5.8290    1.5760 hc        1 MOL      0.021263
     18 H7        -10.0300    4.0820    1.3780 hc        1 MOL      0.021263
     19 N2         -7.0130    3.8810   -0.1800 n         1 MOL     -0.573687
     20 C7         -6.0940    3.0960   -0.9520 c3        1 MOL      0.440535
     21 C8         -4.9720    2.3490   -0.0780 c         1 MOL      0.314885
     22 O5         -4.3690    2.9480    0.8220 o         1 MOL     -0.513276
     23 C9         -5.4430    4.0190   -2.0120 c3        1 MOL     -0.312812
     24 H8         -6.5510    4.3530    0.5920 hn        1 MOL      0.237205
     25 H9         -6.6360    2.2550   -1.3800 h1        1 MOL     -0.039974
     26 H10        -6.2800    4.3780   -2.6000 hc        1 MOL      0.090050
     27 H11        -5.0250    4.8710   -1.4810 hc        1 MOL      0.090050
     28 H12        -4.7210    3.5860   -2.7150 hc        1 MOL      0.090050
     29 N3         -4.7270    1.0560   -0.2980 n         1 MOL     -0.106154
     30 C10        -5.4370    0.0820   -1.1100 c3        1 MOL     -0.312989
     31 C11        -5.4680   -1.3240   -0.4050 c         1 MOL      0.463969
     32 O6         -4.6910   -1.6870    0.4860 o         1 MOL     -0.458278
     33 C12        -4.5310   -0.0970   -2.3860 c3        1 MOL     -0.131761
     34 C13        -3.1240   -0.4730   -1.9840 c         1 MOL      0.691102
     35 O7         -2.3590    0.4030   -1.5490 o         1 MOL     -0.695728
     36 O8         -2.7660   -1.6830   -1.9630 o         1 MOL     -0.695728
     37 H13        -4.0230    0.6430    0.2960 hn        1 MOL      0.202844
     38 H14        -6.4210    0.3810   -1.4630 h1        1 MOL      0.165457
     39 H15        -4.3950    0.8340   -2.9450 hc        1 MOL      0.043040
     40 H16        -4.8900   -0.9050   -3.0340 hc        1 MOL      0.043040
     41 N4         -6.3900   -2.0990   -1.0070 n         1 MOL     -0.327252
     42 C14        -6.7890   -3.4710   -0.6170 c3        1 MOL      0.002398
     43 C15        -6.5680   -4.6410   -1.5900 c         1 MOL      0.522047
     44 O9         -7.3950   -5.0900   -2.3750 o         1 MOL     -0.566855
     45 H17        -6.9960   -1.7630   -1.7320 hn        1 MOL      0.311768
     46 H18        -7.8710   -3.4830   -0.5620 h1        1 MOL      0.040988
     47 H19        -6.3330   -3.7190    0.3430 h1        1 MOL      0.040988
     48 N5         -5.4190   -5.2290   -1.5870 n         1 MOL     -0.387515
     49 C16        -4.1650   -4.8090   -1.0560 c3        1 MOL      0.036219
     50 C17        -3.9550   -5.3970    0.3220 c         1 MOL      0.513797
     51 O10        -3.7880   -6.5460    0.5050 o         1 MOL     -0.540008
     52 C18        -3.0640   -5.2260   -2.0610 c3        1 MOL     -0.039746
     53 C19        -1.7310   -4.6960   -1.7050 c         1 MOL      0.455301
     54 N6         -0.7750   -4.8350   -2.5600 n         1 MOL     -0.645996
     55 O11        -1.5050   -4.1260   -0.6340 o         1 MOL     -0.527992
     56 H20        -5.3950   -6.0640   -2.1620 hn        1 MOL      0.270017
     57 H21        -4.0790   -3.7290   -0.9560 h1        1 MOL      0.052623
     58 H22        -3.3010   -4.9630   -3.0890 hc        1 MOL      0.053341
     59 H23        -2.9530   -6.3060   -1.9880 hc        1 MOL      0.053341
     60 H24        -0.9210   -5.2720   -3.4570 hn        1 MOL      0.340868
     61 H25        -0.0290   -4.1740   -2.4410 hn        1 MOL      0.340868
     62 N7         -3.8530   -4.5280    1.3830 n         1 MOL     -0.188030
     63 C20        -3.5920   -4.9030    2.7410 c3        1 MOL     -0.273735
     64 C21        -2.1300   -5.1070    3.0530 c         1 MOL      0.559980
     65 O12        -1.8100   -5.6960    4.0170 o         1 MOL     -0.561482
     66 H26        -3.9390   -3.5300    1.2490 hn        1 MOL      0.229959
     67 H27        -4.1210   -5.8160    3.0310 h1        1 MOL      0.114955
     68 H28        -3.9710   -4.1390    3.4030 h1        1 MOL      0.114955
     69 N8         -1.2140   -4.6700    2.1770 n         1 MOL      0.001225
     70 C22         0.2810   -5.0190    2.2030 c3        1 MOL     -0.498842
     71 C23         1.0430   -3.7300    1.9540 c         1 MOL      0.449747
     72 O13         0.5570   -2.8500    1.2700 o         1 MOL     -0.495831
     73 C24         0.7600   -6.1510    1.2490 c3        1 MOL      0.670172
     74 C25        -0.1920   -7.3440    1.3630 c3        1 MOL     -0.559497
     75 O14         0.9230   -5.8520   -0.0610 oh        1 MOL     -0.596175
     76 H29        -1.5930   -4.1790    1.3710 hn        1 MOL     -0.017075
     77 H30         0.5460   -5.2430    3.2470 h1        1 MOL      0.128516
     78 H31         1.7700   -6.4690    1.5240 h1        1 MOL     -0.050517
     79 H32         0.3090   -5.1460   -0.2540 ho        1 MOL      0.399593
     80 H33        -1.2390   -7.1060    1.1590 hc        1 MOL      0.133731
     81 H34         0.2150   -7.9920    0.5930 hc        1 MOL      0.133731
     82 H35        -0.0600   -7.8310    2.3300 hc        1 MOL      0.133731
     83 N9          2.3020   -3.6850    2.4130 n         1 MOL     -0.135362
     84 C26         3.2030   -2.5370    2.1720 c3        1 MOL     -0.027964
     85 C27         4.0170   -2.7870    0.8590 c         1 MOL      0.160544
     86 O15         4.9320   -3.6150    0.9140 o         1 MOL     -0.530376
     87 C28         4.0000   -2.2020    3.4400 c3        1 MOL      0.216062
     88 C29         4.7780   -0.8720    3.0840 c3        1 MOL      0.180738
     89 C30         3.0330   -2.1200    4.6080 c3        1 MOL     -0.302996
     90 C31         5.5880   -0.3990    4.2740 c3        1 MOL     -0.400253
     91 H36         2.6510   -4.4740    2.9390 hn        1 MOL      0.218162
     92 H37         2.5030   -1.7430    1.9190 h1        1 MOL     -0.000422
     93 H38         4.6860   -3.0090    3.6890 hc        1 MOL     -0.015941
     94 H39         4.1160   -0.0840    2.7120 hc        1 MOL     -0.005037
     95 H40         5.4770   -1.1320    2.2980 hc        1 MOL     -0.005037
     96 H41         3.4810   -1.7300    5.5240 hc        1 MOL      0.065954
     97 H42         2.1180   -1.5580    4.4180 hc        1 MOL      0.065954
     98 H43         2.6970   -3.1280    4.8530 hc        1 MOL      0.065954
     99 H44         4.9930    0.1620    4.9970 hc        1 MOL      0.083461
    100 H45         5.9020   -1.2680    4.8560 hc        1 MOL      0.083461
    101 H46         6.4550    0.1470    3.8840 hc        1 MOL      0.083461
    102 N10         3.7420   -2.0490   -0.1910 n         1 MOL      0.158201
    103 C32         4.3930   -2.2310   -1.5320 c3        1 MOL      0.009023
    104 C33         5.6380   -1.2880   -1.8050 c         1 MOL      0.402859
    105 O16         6.3400   -1.4210   -2.8660 o         1 MOL     -0.530224
    106 C34         3.3470   -2.1400   -2.6590 c3        1 MOL     -0.054795
    107 C35         2.1710   -3.1470   -2.5620 c         1 MOL      0.541355
    108 O17         2.2860   -4.3480   -3.0190 o         1 MOL     -0.638201
    109 O18         1.1420   -2.7240   -2.0160 o         1 MOL     -0.638201
    110 H47         3.0640   -1.3090   -0.1050 hn        1 MOL     -0.057419
    111 H48         4.8330   -3.2260   -1.5470 h1        1 MOL      0.100514
    112 H49         3.8550   -2.3560   -3.5960 hc        1 MOL      0.009436
    113 H50         2.9100   -1.1470   -2.7520 hc        1 MOL      0.009436
    114 N11         5.8950   -0.3650   -0.8840 n         1 MOL     -0.337967
    115 C36         6.8290    0.7380   -1.1870 c3        1 MOL      0.227365
    116 C37         6.5410    2.1330   -0.4300 c         1 MOL      0.317294
    117 O19         6.1710    1.9640    0.7410 o         1 MOL     -0.460736
    118 C38         8.2400    0.2490   -0.8600 c3        1 MOL     -0.351219
    119 C39         9.4360    1.2140   -1.1420 ca        1 MOL      0.189338
    120 C40         9.7180    2.2200   -0.1910 ca        1 MOL     -0.225817
    121 C41        10.2160    1.0020   -2.3070 ca        1 MOL     -0.225817
    122 C42        10.7230    3.2010   -0.4110 ca        1 MOL     -0.038557
    123 C43        11.2240    1.9530   -2.4820 ca        1 MOL     -0.038557
    124 C44        11.4610    3.0600   -1.6350 ca        1 MOL     -0.225544
    125 H51         5.4410   -0.3650    0.0170 hn        1 MOL      0.222776
    126 H52         6.6600    0.9690   -2.2410 h1        1 MOL      0.032991
    127 H53         8.3820   -0.5920   -1.5310 hc        1 MOL      0.131216
    128 H54         8.3000   -0.1620    0.1470 hc        1 MOL      0.131216
    129 H55         9.1490    2.3460    0.7180 ha        1 MOL      0.152086
    130 H56         9.9710    0.2230   -3.0030 ha        1 MOL      0.152086
    131 H57        11.0000    4.0140    0.2500 ha        1 MOL      0.095078
    132 H58        11.7180    1.8860   -3.4400 ha        1 MOL      0.095078
    133 H59        12.1450    3.8490   -1.9280 ha        1 MOL      0.124850
    134 N12         6.5110    3.3030   -1.1000 n         1 MOL     -0.236143
    135 C45         6.3690    4.6320   -0.4820 c3        1 MOL     -0.010028
    136 C46         5.0880    5.0320    0.2350 c         1 MOL      0.390631
    137 O20         5.0650    6.0240    0.9210 o         1 MOL     -0.534010
    138 C47         6.5430    5.6120   -1.6920 c3        1 MOL      0.114199
    139 C48         7.5710    4.8910   -2.5220 c3        1 MOL     -0.222746
    140 C49         7.1520    3.4950   -2.4550 c3        1 MOL      0.077376
    141 H60         7.1420    4.8470    0.2470 h1        1 MOL      0.086626
    142 H61         5.5670    5.6220   -2.1760 hc        1 MOL      0.012457
    143 H62         6.8550    6.6210   -1.4140 hc        1 MOL      0.012457
    144 H63         7.6090    5.3200   -3.5300 hc        1 MOL      0.076575
    145 H64         8.4760    4.9940   -1.9190 hc        1 MOL      0.076575
    146 H65         6.4740    3.1560   -3.2350 h1        1 MOL      0.049349
    147 H66         8.0170    2.8570   -2.5980 h1        1 MOL      0.049349
    148 N13         4.0340    4.2300    0.1260 n         1 MOL     -0.230556
    149 C50         2.8040    4.4160    0.9150 c3        1 MOL     -0.125373
    150 C51         3.0260    4.4790    2.3960 c         1 MOL      0.565434
    151 O21         2.1190    4.9690    3.0440 o         1 MOL     -0.564010
    152 C52         1.8380    3.2670    0.6460 c3        1 MOL     -0.127462
    153 C53         2.3820    1.8630    1.0740 c3        1 MOL     -0.112911
    154 C54         1.5280    0.7000    0.5410 c         1 MOL      0.848753
    155 O22         1.7460    0.0630   -0.4850 o         1 MOL     -0.740814
    156 O23         0.4040    0.5560    0.9810 o         1 MOL     -0.740814
    157 H67         4.1160    3.4780   -0.5450 hn        1 MOL      0.216370
    158 H68         2.2400    5.3160    0.6720 h1        1 MOL      0.114883
    159 H69         1.6350    3.1320   -0.4190 hc        1 MOL      0.089630
    160 H70         0.9020    3.4930    1.1490 hc        1 MOL      0.089630
    161 H71         2.3730    1.8730    2.1620 hc        1 MOL      0.005219
    162 H72         3.4250    1.7770    0.7770 hc        1 MOL      0.005219
    163 N14         4.0780    3.9660    2.9750 n         1 MOL     -0.138063
    164 C55         4.3420    4.1740    4.4540 c3        1 MOL     -0.264001
    165 H73         4.5480    5.2280    4.6410 h1        1 MOL      0.108467
    166 H74         3.4670    3.8680    5.0280 h1        1 MOL      0.108467
    167 H75         5.2040    3.5780    4.7570 h1        1 MOL      0.108467
    168 H76         4.7950    3.5630    2.3920 hn        1 MOL      0.185549
    169 Ca1        -0.5520   -1.4550   -0.6390 Ca        1 MOL      1.648145
    170 O24        -2.2800   -1.4860    1.4960 oh        1 MOL     -0.770947
    171 H77        -2.1140   -0.7200    2.0510 ho        1 MOL      0.381835
    172 H78        -3.2250   -1.4800    1.3450 ho        1 MOL      0.381835
    173 O25         0.2370   -0.3220   -3.1760 oh        1 MOL     -0.770947
    174 H79         1.1010    0.0750   -3.0430 ho        1 MOL      0.381835
    175 H80         0.3600   -0.9280   -3.9060 ho        1 MOL      0.381835
@<TRIPOS>BOND
     1    1    2 1   
     2    1    4 1   
     3    1    5 1   
     4    1    6 1   
     5    2    3 2   
     6    2    7 1   
     7    7    8 1   
     8    7   15 1   
     9    8    9 1   
    10    8   11 1   
    11    8   16 1   
    12    9   10 2   
    13    9   19 1   
    14   11   12 1   
    15   11   17 1   
    16   11   18 1   
    17   12   13 1   
    18   12   14 1   
    19   19   20 1   
    20   19   24 1   
    21   20   21 1   
    22   20   23 1   
    23   20   25 1   
    24   21   22 2   
    25   21   29 1   
    26   23   26 1   
    27   23   27 1   
    28   23   28 1   
    29   29   30 1   
    30   29   37 1   
    31   30   31 1   
    32   30   33 1   
    33   30   38 1   
    34   31   32 2   
    35   31   41 1   
    36   33   34 1   
    37   33   39 1   
    38   33   40 1   
    39   34   35 1   
    40   34   36 1   
    41   41   42 1   
    42   41   45 1   
    43   42   43 1   
    44   42   46 1   
    45   42   47 1   
    46   43   44 2   
    47   43   48 1   
    48   48   49 1   
    49   48   56 1   
    50   49   50 1   
    51   49   52 1   
    52   49   57 1   
    53   50   51 2   
    54   50   62 1   
    55   52   53 1   
    56   52   58 1   
    57   52   59 1   
    58   53   54 1   
    59   53   55 2   
    60   54   60 1   
    61   54   61 1   
    62   62   63 1   
    63   62   66 1   
    64   63   64 1   
    65   63   67 1   
    66   63   68 1   
    67   64   65 2   
    68   64   69 1   
    69   69   70 1   
    70   69   76 1   
    71   70   71 1   
    72   70   73 1   
    73   70   77 1   
    74   71   72 2   
    75   71   83 1   
    76   73   74 1   
    77   73   75 1   
    78   73   78 1   
    79   74   80 1   
    80   74   81 1   
    81   74   82 1   
    82   75   79 1   
    83   83   84 1   
    84   83   91 1   
    85   84   85 1   
    86   84   87 1   
    87   84   92 1   
    88   85   86 2   
    89   85  102 1   
    90   87   88 1   
    91   87   89 1   
    92   87   93 1   
    93   88   90 1   
    94   88   94 1   
    95   88   95 1   
    96   89   96 1   
    97   89   97 1   
    98   89   98 1   
    99   90   99 1   
   100   90  100 1   
   101   90  101 1   
   102  102  103 1   
   103  102  110 1   
   104  103  104 1   
   105  103  106 1   
   106  103  111 1   
   107  104  105 2   
   108  104  114 1   
   109  106  107 1   
   110  106  112 1   
   111  106  113 1   
   112  107  108 1   
   113  107  109 1   
   114  114  115 1   
   115  114  125 1   
   116  115  116 1   
   117  115  118 1   
   118  115  126 1   
   119  116  117 2   
   120  116  134 1   
   121  118  119 1   
   122  118  127 1   
   123  118  128 1   
   124  119  120 ar  
   125  119  121 ar  
   126  120  122 ar  
   127  120  129 1   
   128  121  123 ar  
   129  121  130 1   
   130  122  124 ar  
   131  122  131 1   
   132  123  124 ar  
   133  123  132 1   
   134  124  133 1   
   135  134  135 1   
   136  134  140 1   
   137  135  136 1   
   138  135  138 1   
   139  135  141 1   
   140  136  137 2   
   141  136  148 1   
   142  138  139 1   
   143  138  142 1   
   144  138  143 1   
   145  139  140 1   
   146  139  144 1   
   147  139  145 1   
   148  140  146 1   
   149  140  147 1   
   150  148  149 1   
   151  148  157 1   
   152  149  150 1   
   153  149  152 1   
   154  149  158 1   
   155  150  151 2   
   156  150  163 1   
   157  152  153 1   
   158  152  159 1   
   159  152  160 1   
   160  153  154 1   
   161  153  161 1   
   162  153  162 1   
   163  154  155 1   
   164  154  156 1   
   165  163  164 1   
   166  163  168 1   
   167  164  165 1   
   168  164  166 1   
   169  164  167 1   
   170  170  171 1   
   171  170  172 1   
   172  173  174 1   
   173  173  175 1   
@<TRIPOS>SUBSTRUCTURE
     1 MOL         1 TEMP              0 ****  ****    0 ROOT
