@<TRIPOS>MOLECULE
MOL
  189   185     1     0     0
SMALL
resp


@<TRIPOS>ATOM
      1 C1         11.6510    6.0020   -3.0410 c3        1 MOL     -0.543836
      2 C2         11.5210    4.7060   -2.1670 c         1 MOL      0.593309
      3 O1         12.0710    3.6960   -2.4870 o         1 MOL     -0.557153
      4 H1         11.3560    6.8700   -2.4510 hc        1 MOL      0.147115
      5 H2         12.6840    6.1190   -3.3670 hc        1 MOL      0.147115
      6 H3         11.0020    5.9190   -3.9140 hc        1 MOL      0.147115
      7 N1         10.9390    4.7530   -0.9560 n         1 MOL     -0.054042
      8 C3         10.8180    3.6360   -0.0170 c3        1 MOL     -0.694190
      9 C4          9.6850    2.6800   -0.4690 c         1 MOL      0.788946
     10 O2          8.5720    3.0330   -0.7370 o         1 MOL     -0.648847
     11 C5         10.6550    4.1250    1.4180 c3        1 MOL      0.362576
     12 C6          9.5050    5.0730    1.7200 c         1 MOL      0.728787
     13 O3          8.7890    5.4970    0.8240 o         1 MOL     -0.736431
     14 O4          9.3010    5.2820    2.9360 o         1 MOL     -0.736431
     15 H4         10.3670    5.5770   -0.7530 hn        1 MOL      0.044836
     16 H5         11.7470    3.0590   -0.0280 h1        1 MOL      0.196348
     17 H6         11.5800    4.6290    1.7230 hc        1 MOL     -0.023898
     18 H7         10.4910    3.2680    2.0700 hc        1 MOL     -0.023898
     19 N2         10.0560    1.3820   -0.5660 n         1 MOL     -0.441840
     20 C7          9.1960    0.2760   -1.0010 c3        1 MOL     -0.238889
     21 C8          8.3230   -0.2200    0.1880 c         1 MOL      0.925182
     22 O5          8.7400   -0.6200    1.2550 o         1 MOL     -0.629473
     23 C9         10.0220   -0.9190   -1.5340 c3        1 MOL     -0.081668
     24 C10         9.1880   -1.9610   -2.2520 c3        1 MOL     -0.043444
     25 C11         9.9830   -3.1440   -2.8880 c3        1 MOL      0.029384
     26 C12        10.5190   -2.6910   -4.2420 c3        1 MOL      0.085958
     27 N3         11.2140   -3.8400   -4.8930 n4        1 MOL     -0.392140
     28 H8         10.9910    1.0570   -0.3520 hn        1 MOL      0.278915
     29 H9          8.5080    0.6080   -1.7830 h1        1 MOL      0.209102
     30 H10        10.6060   -1.4400   -0.7660 hc        1 MOL      0.060976
     31 H11        10.8190   -0.6290   -2.2200 hc        1 MOL      0.060976
     32 H12         8.7080   -1.4560   -3.0880 hc        1 MOL      0.015403
     33 H13         8.4980   -2.3840   -1.5220 hc        1 MOL      0.015403
     34 H14         9.3270   -4.0110   -2.9470 hc        1 MOL      0.034447
     35 H15        10.8670   -3.3450   -2.2760 hc        1 MOL      0.034447
     36 H16        11.1430   -1.7920   -4.2260 hx        1 MOL      0.059995
     37 H17         9.6400   -2.5670   -4.8770 hx        1 MOL      0.059995
     38 H18        11.7010   -3.4620   -5.7010 hn        1 MOL      0.272686
     39 H19        11.9180   -4.1800   -4.2520 hn        1 MOL      0.272686
     40 H20        10.5740   -4.5460   -5.2230 hn        1 MOL      0.272686
     41 N4          7.0200   -0.3230   -0.0240 n         1 MOL     -0.509501
     42 C13         5.9890   -0.5050    1.0800 c3        1 MOL      0.019546
     43 C14         4.5040   -0.6500    0.5300 c         1 MOL      0.377635
     44 O6          4.2170   -0.3190   -0.6070 o         1 MOL     -0.477888
     45 C15         5.9940    0.7010    2.0280 c3        1 MOL      0.245531
     46 C16         5.9510    2.0670    1.3980 c         1 MOL      0.503898
     47 O7          6.4950    3.0220    2.0090 o         1 MOL     -0.741672
     48 O8          5.8060    2.1880    0.1700 o         1 MOL     -0.741672
     49 H21         6.6450   -0.1570   -0.9460 hn        1 MOL      0.231748
     50 H22         6.2630   -1.3610    1.7050 h1        1 MOL      0.073690
     51 H23         6.9800    0.6070    2.4720 hc        1 MOL      0.000125
     52 H24         5.1820    0.6940    2.7610 hc        1 MOL      0.000125
     53 N5          3.4730   -0.9810    1.3040 n         1 MOL     -0.410539
     54 C17         3.5910   -1.6950    2.5870 c3        1 MOL      0.136531
     55 C18         3.5940   -3.2160    2.3810 c         1 MOL      0.715792
     56 O9          3.8870   -3.7660    1.2970 o         1 MOL     -0.588143
     57 H25         2.5830   -1.0140    0.8340 hn        1 MOL      0.300132
     58 H26         2.7730   -1.4420    3.2610 h1        1 MOL      0.003722
     59 H27         4.5260   -1.4620    3.1030 h1        1 MOL      0.003722
     60 N6          3.2140   -3.9700    3.4370 n         1 MOL     -0.749123
     61 C19         3.1490   -5.4180    3.2780 c3        1 MOL      0.352079
     62 C20         1.7790   -5.8230    2.7530 c         1 MOL      0.489764
     63 O10         0.8270   -5.0840    2.9330 o         1 MOL     -0.457165
     64 C21         3.5550   -6.1470    4.5150 c3        1 MOL     -0.239285
     65 C22         4.8740   -5.5290    5.0840 c         1 MOL      0.734642
     66 O11         5.0990   -5.5710    6.3050 o         1 MOL     -0.639622
     67 O12         5.7840   -5.1260    4.3480 o         1 MOL     -0.639622
     68 H28         2.9260   -3.5270    4.2980 hn        1 MOL      0.360266
     69 H29         3.9070   -5.7730    2.5860 h1        1 MOL     -0.006196
     70 H30         3.7570   -7.1730    4.2170 hc        1 MOL      0.032583
     71 H31         2.8180   -6.1580    5.3170 hc        1 MOL      0.032583
     72 N7          1.6980   -6.9460    1.9590 n         1 MOL     -0.549443
     73 C23         0.4260   -7.3620    1.3710 c3        1 MOL     -0.081206
     74 C24        -0.2790   -6.3540    0.4320 c         1 MOL      0.550611
     75 O13        -1.4360   -6.5520    0.1400 o         1 MOL     -0.558679
     76 H32         2.4590   -7.6140    1.9110 hn        1 MOL      0.325498
     77 H33        -0.2210   -7.6590    2.1950 h1        1 MOL      0.102564
     78 H34         0.5330   -8.2960    0.8180 h1        1 MOL      0.102564
     79 N8          0.4320   -5.2780    0.0410 n         1 MOL     -0.417320
     80 C25        -0.0090   -4.2330   -0.8930 c3        1 MOL     -0.013887
     81 C26        -0.7530   -3.0940   -0.2150 c         1 MOL      0.801168
     82 O14        -0.3440   -2.6870    0.9290 o         1 MOL     -0.556586
     83 C27         1.0460   -3.5940   -1.7680 c3        1 MOL      0.358359
     84 C28         0.5460   -2.8010   -3.0270 c3        1 MOL     -0.561639
     85 O15         1.8300   -2.6610   -1.0250 oh        1 MOL     -0.662836
     86 H35         1.3190   -5.1590    0.5040 hn        1 MOL      0.237375
     87 H36        -0.7460   -4.7390   -1.5120 h1        1 MOL      0.031685
     88 H37         1.7620   -4.3790   -2.0120 h1        1 MOL      0.004370
     89 H38         2.7600   -2.8680   -1.1640 ho        1 MOL      0.430000
     90 H39         1.3510   -2.8600   -3.7730 hc        1 MOL      0.146433
     91 H40        -0.3700   -3.2130   -3.4360 hc        1 MOL      0.146433
     92 H41         0.4320   -1.7360   -2.8270 hc        1 MOL      0.146433
     93 N9         -1.7990   -2.6320   -0.8290 n         1 MOL     -0.681946
     94 C29        -2.6970   -1.5460   -0.4330 c3        1 MOL      0.008785
     95 C30        -4.1720   -1.7760   -0.4450 c         1 MOL      0.614898
     96 O16        -4.9090   -1.2210    0.3890 o         1 MOL     -0.578572
     97 C31        -2.3310   -0.1890   -1.0920 c3        1 MOL      0.050583
     98 C32        -2.9850    0.9420   -0.3170 c3        1 MOL      0.158289
     99 C33        -2.5980   -0.1870   -2.6460 c3        1 MOL     -0.215772
    100 C34        -2.2250    2.2540   -0.4000 c3        1 MOL     -0.089560
    101 H42        -2.0120   -3.1010   -1.7000 hn        1 MOL      0.339164
    102 H43        -2.4680   -1.4240    0.6270 h1        1 MOL      0.112034
    103 H44        -1.2620    0.0210   -0.9620 hc        1 MOL      0.066399
    104 H45        -3.0040    0.7270    0.7550 hc        1 MOL     -0.034020
    105 H46        -3.9990    1.1640   -0.6640 hc        1 MOL     -0.034020
    106 H47        -2.1340   -1.0720   -3.0770 hc        1 MOL      0.044891
    107 H48        -3.6580   -0.2700   -2.8610 hc        1 MOL      0.044891
    108 H49        -2.0470    0.6230   -3.1390 hc        1 MOL      0.044891
    109 H50        -2.5230    2.9700    0.3770 hc        1 MOL      0.011661
    110 H51        -1.1450    2.1390   -0.3990 hc        1 MOL      0.011661
    111 H52        -2.3590    2.7060   -1.3890 hc        1 MOL      0.011661
    112 N10        -4.6180   -2.8260   -1.1620 n         1 MOL     -0.418814
    113 C35        -6.0480   -3.3310   -1.0790 c3        1 MOL      0.029672
    114 C36        -6.8350   -2.6190   -2.1660 c         1 MOL      0.546116
    115 O17        -6.6810   -2.8730   -3.3750 o         1 MOL     -0.548592
    116 C37        -6.1610   -4.9380   -1.2100 c3        1 MOL      0.294402
    117 C38        -5.0500   -5.6810   -0.4010 c3        1 MOL     -0.229703
    118 O18        -7.3830   -5.4070   -0.7060 oh        1 MOL     -0.647370
    119 H53        -3.9940   -3.2250   -1.8590 hn        1 MOL      0.248523
    120 H54        -6.4260   -3.1370   -0.0700 h1        1 MOL      0.141753
    121 H55        -6.0090   -5.2550   -2.2320 h1        1 MOL     -0.008920
    122 H56        -7.2820   -6.3490   -0.7800 ho        1 MOL      0.406959
    123 H57        -5.2130   -5.4310    0.6490 hc        1 MOL      0.065553
    124 H58        -4.9830   -6.7470   -0.6020 hc        1 MOL      0.065553
    125 H59        -4.1140   -5.2090   -0.6910 hc        1 MOL      0.065553
    126 N11        -7.6970   -1.6990   -1.7430 n         1 MOL     -0.507003
    127 C39        -8.7570   -1.1590   -2.6730 c3        1 MOL      0.001547
    128 C40        -9.3020    0.2680   -2.3620 c         1 MOL      0.611137
    129 O19        -9.7850    0.8550   -3.3310 o         1 MOL     -0.570137
    130 C41        -9.9180   -2.1510   -2.6010 c3        1 MOL      0.437936
    131 C42       -11.1060   -1.8700   -3.4670 c3        1 MOL     -0.618026
    132 O20       -10.2970   -2.4460   -1.3110 oh        1 MOL     -0.614055
    133 H60        -7.7360   -1.4410   -0.7660 hn        1 MOL      0.310900
    134 H61        -8.4810   -1.1470   -3.7250 h1        1 MOL      0.096588
    135 H62        -9.5090   -2.9980   -3.1580 h1        1 MOL      0.024877
    136 H63       -11.2490   -2.4560   -1.4650 ho        1 MOL      0.371600
    137 H64       -11.7300   -1.0610   -3.0810 hc        1 MOL      0.156010
    138 H65       -10.7280   -1.6060   -4.4590 hc        1 MOL      0.156010
    139 H66       -11.6620   -2.7660   -3.7160 hc        1 MOL      0.156010
    140 N12        -9.2460    0.8440   -1.1600 n         1 MOL     -0.479615
    141 C43        -9.7500    2.1970   -0.7830 c3        1 MOL     -0.014880
    142 C44        -9.0880    2.7500    0.4920 c         1 MOL      0.588372
    143 O21        -9.0310    2.0130    1.4560 o         1 MOL     -0.512277
    144 C45       -11.3150    2.2450   -0.5220 c3        1 MOL     -0.097252
    145 C46       -11.9900    1.1270    0.2550 c3        1 MOL      0.168193
    146 C47       -13.4930    1.1410    0.0620 c3        1 MOL     -0.206239
    147 C48       -14.0770   -0.0270    0.8600 c3        1 MOL      0.150087
    148 N13       -15.6250   -0.1270    0.8800 n4        1 MOL     -0.284812
    149 H67        -8.8260    0.3170   -0.4020 hn        1 MOL      0.269956
    150 H68        -9.6690    2.8890   -1.6210 h1        1 MOL      0.103174
    151 H69       -11.7570    2.1580   -1.5190 hc        1 MOL      0.043326
    152 H70       -11.6210    3.2070   -0.0950 hc        1 MOL      0.043326
    153 H71       -11.6850    1.1390    1.3040 hc        1 MOL     -0.000598
    154 H72       -11.6140    0.2220   -0.2320 hc        1 MOL     -0.000598
    155 H73       -13.6960    1.0970   -1.0150 hc        1 MOL      0.059985
    156 H74       -13.9730    2.0620    0.4240 hc        1 MOL      0.059985
    157 H75       -13.6490   -0.1720    1.8540 hx        1 MOL      0.039125
    158 H76       -13.7560   -0.9330    0.3400 hx        1 MOL      0.039125
    159 H77       -15.8870   -1.0070    1.2930 hn        1 MOL      0.233335
    160 H78       -15.9810    0.6670    1.3890 hn        1 MOL      0.233335
    161 H79       -15.9030    0.0060   -0.0770 hn        1 MOL      0.233335
    162 N14        -8.7860    4.0680    0.5280 n         1 MOL     -0.527125
    163 C49        -8.0250    4.7810    1.5420 c3        1 MOL      0.353412
    164 C50        -6.5070    4.4380    1.5520 c         1 MOL      0.301763
    165 O22        -5.9950    4.2760    2.6220 o         1 MOL     -0.480072
    166 C51        -8.3320    6.2740    1.4800 c3        1 MOL     -0.003527
    167 C52        -7.4880    7.0500    2.5110 c3        1 MOL     -0.285818
    168 C53        -7.9470    8.5740    2.7330 c         1 MOL      0.693132
    169 O23        -9.0810    8.9850    2.5780 o         1 MOL     -0.619495
    170 O24        -7.1120    9.4800    2.9770 o         1 MOL     -0.619495
    171 H80        -8.9110    4.4980   -0.3770 hn        1 MOL      0.218445
    172 H81        -8.4520    4.3960    2.4690 h1        1 MOL      0.027350
    173 H82        -9.4130    6.4370    1.5250 hc        1 MOL      0.019557
    174 H83        -7.9640    6.6440    0.5110 hc        1 MOL      0.019557
    175 H84        -6.4470    7.1680    2.1990 hc        1 MOL      0.073553
    176 H85        -7.4770    6.5150    3.4530 hc        1 MOL      0.073553
    177 N15        -5.7090    4.3250    0.4330 n         1 MOL     -0.307992
    178 C54        -6.0850    4.6900   -0.9440 c3        1 MOL     -0.085729
    179 H86        -6.2570    3.7850   -1.5260 h1        1 MOL      0.058619
    180 H87        -6.9970    5.2880   -0.9260 h1        1 MOL      0.058619
    181 H88        -5.2810    5.2670   -1.4000 h1        1 MOL      0.058619
    182 H89        -4.7510    4.0130    0.5760 hn        1 MOL      0.281317
    183 Ca1         6.4750    4.7480   -0.0440 Ca        1 MOL      1.672069
    184 O25         7.2200    4.0310   -3.1070 oh        1 MOL     -0.737694
    185 H90         7.5810    4.8170   -2.6930 ho        1 MOL      0.380723
    186 H91         7.4020    4.1540   -4.0450 ho        1 MOL      0.380723
    187 O26         4.3000    4.8840   -2.0470 oh        1 MOL     -0.737694
    188 H92         3.8640    4.2250   -2.5810 ho        1 MOL      0.380723
    189 H93         3.7120    5.0150   -1.3000 ho        1 MOL      0.380723
@<TRIPOS>BOND
     1    1    2 1   
     2    1    4 1   
     3    1    5 1   
     4    1    6 1   
     5    2    3 2   
     6    2    7 1   
     7    7    8 1   
     8    7   15 1   
     9    8    9 1   
    10    8   11 1   
    11    8   16 1   
    12    9   10 2   
    13    9   19 1   
    14   11   12 1   
    15   11   17 1   
    16   11   18 1   
    17   12   13 1   
    18   12   14 1   
    19   19   20 1   
    20   19   28 1   
    21   20   21 1   
    22   20   23 1   
    23   20   29 1   
    24   21   22 2   
    25   21   41 1   
    26   23   24 1   
    27   23   30 1   
    28   23   31 1   
    29   24   25 1   
    30   24   32 1   
    31   24   33 1   
    32   25   26 1   
    33   25   34 1   
    34   25   35 1   
    35   26   27 1   
    36   26   36 1   
    37   26   37 1   
    38   27   38 1   
    39   27   39 1   
    40   27   40 1   
    41   41   42 1   
    42   41   49 1   
    43   42   43 1   
    44   42   45 1   
    45   42   50 1   
    46   43   44 2   
    47   43   53 1   
    48   45   46 1   
    49   45   51 1   
    50   45   52 1   
    51   46   47 1   
    52   46   48 1   
    53   53   54 1   
    54   53   57 1   
    55   54   55 1   
    56   54   58 1   
    57   54   59 1   
    58   55   56 2   
    59   55   60 1   
    60   60   61 1   
    61   60   68 1   
    62   61   62 1   
    63   61   64 1   
    64   61   69 1   
    65   62   63 2   
    66   62   72 1   
    67   64   65 1   
    68   64   70 1   
    69   64   71 1   
    70   65   66 1   
    71   65   67 1   
    72   72   73 1   
    73   72   76 1   
    74   73   74 1   
    75   73   77 1   
    76   73   78 1   
    77   74   75 2   
    78   74   79 1   
    79   79   80 1   
    80   79   86 1   
    81   80   81 1   
    82   80   83 1   
    83   80   87 1   
    84   81   82 2   
    85   81   93 1   
    86   83   84 1   
    87   83   85 1   
    88   83   88 1   
    89   84   90 1   
    90   84   91 1   
    91   84   92 1   
    92   85   89 1   
    93   93   94 1   
    94   93  101 1   
    95   94   95 1   
    96   94   97 1   
    97   94  102 1   
    98   95   96 2   
    99   95  112 1   
   100   97   98 1   
   101   97   99 1   
   102   97  103 1   
   103   98  100 1   
   104   98  104 1   
   105   98  105 1   
   106   99  106 1   
   107   99  107 1   
   108   99  108 1   
   109  100  109 1   
   110  100  110 1   
   111  100  111 1   
   112  112  113 1   
   113  112  119 1   
   114  113  114 1   
   115  113  116 1   
   116  113  120 1   
   117  114  115 2   
   118  114  126 1   
   119  116  117 1   
   120  116  118 1   
   121  116  121 1   
   122  117  123 1   
   123  117  124 1   
   124  117  125 1   
   125  118  122 1   
   126  126  127 1   
   127  126  133 1   
   128  127  128 1   
   129  127  130 1   
   130  127  134 1   
   131  128  129 2   
   132  128  140 1   
   133  130  131 1   
   134  130  132 1   
   135  130  135 1   
   136  131  137 1   
   137  131  138 1   
   138  131  139 1   
   139  132  136 1   
   140  140  141 1   
   141  140  149 1   
   142  141  142 1   
   143  141  144 1   
   144  141  150 1   
   145  142  143 2   
   146  142  162 1   
   147  144  145 1   
   148  144  151 1   
   149  144  152 1   
   150  145  146 1   
   151  145  153 1   
   152  145  154 1   
   153  146  147 1   
   154  146  155 1   
   155  146  156 1   
   156  147  148 1   
   157  147  157 1   
   158  147  158 1   
   159  148  159 1   
   160  148  160 1   
   161  148  161 1   
   162  162  163 1   
   163  162  171 1   
   164  163  164 1   
   165  163  166 1   
   166  163  172 1   
   167  164  165 2   
   168  164  177 1   
   169  166  167 1   
   170  166  173 1   
   171  166  174 1   
   172  167  168 1   
   173  167  175 1   
   174  167  176 1   
   175  168  169 1   
   176  168  170 1   
   177  177  178 1   
   178  177  182 1   
   179  178  179 1   
   180  178  180 1   
   181  178  181 1   
   182  184  185 1   
   183  184  186 1   
   184  187  188 1   
   185  187  189 1   
@<TRIPOS>SUBSTRUCTURE
     1 MOL         1 TEMP              0 ****  ****    0 ROOT
