@<TRIPOS>MOLECULE
MOL
  186   183     1     0     0
SMALL
resp


@<TRIPOS>ATOM
      1 C1          3.8030    5.0700   -3.2550 c3        1 MOL     -0.344996
      2 C2          4.4350    4.0150   -2.3170 c         1 MOL      0.695294
      3 O1          3.7480    3.6190   -1.3750 o         1 MOL     -0.470754
      4 H1          3.0930    5.6760   -2.6930 hc        1 MOL      0.077972
      5 H2          4.5850    5.7110   -3.6610 hc        1 MOL      0.077972
      6 H3          3.2850    4.5670   -4.0710 hc        1 MOL      0.077972
      7 N1          5.6410    3.5480   -2.6460 n         1 MOL     -0.666999
      8 C3          6.3280    2.5500   -1.8940 c3        1 MOL      0.277885
      9 C4          5.5390    1.2300   -1.6900 c         1 MOL      0.452861
     10 O2          5.3380    0.7190   -0.5830 o         1 MOL     -0.571244
     11 C5          7.0440    3.0200   -0.5550 c3        1 MOL     -0.116598
     12 C6          6.2140    3.8490    0.3840 c         1 MOL      0.735830
     13 O3          5.4440    3.3170    1.1680 o         1 MOL     -0.739252
     14 O4          6.5330    5.0730    0.4540 o         1 MOL     -0.739252
     15 H4          6.1400    3.9030   -3.4530 hn        1 MOL      0.325042
     16 H5          7.0860    2.1990   -2.5980 h1        1 MOL     -0.018510
     17 H6          7.8850    3.5970   -0.9350 hc        1 MOL     -0.005751
     18 H7          7.4250    2.1480   -0.0180 hc        1 MOL     -0.005751
     19 N2          5.2650    0.5820   -2.8480 n         1 MOL     -0.344780
     20 C7          4.8260   -0.7790   -3.0960 c3        1 MOL     -0.000503
     21 C8          5.6150   -1.9510   -2.4110 c         1 MOL      0.388313
     22 O5          6.2950   -2.6940   -3.1600 o         1 MOL     -0.567866
     23 C9          3.2900   -0.8860   -2.8900 c3        1 MOL      0.024103
     24 C10         2.6080   -2.2840   -3.0070 c3        1 MOL     -0.064653
     25 C11         2.6290    0.1030   -3.7820 c3        1 MOL     -0.180909
     26 C12         2.7710   -2.9730   -4.3730 c3        1 MOL     -0.363284
     27 H8          5.4320    0.9990   -3.7510 hn        1 MOL      0.234517
     28 H9          4.9050   -0.9660   -4.1670 h1        1 MOL      0.057852
     29 H10         3.1160   -0.4890   -1.8990 hc        1 MOL      0.056174
     30 H11         1.5420   -2.0790   -2.9500 hc        1 MOL      0.078120
     31 H12         2.7270   -2.8850   -2.1030 hc        1 MOL      0.078120
     32 H13         2.7350    1.1150   -3.3930 hc        1 MOL      0.036326
     33 H14         3.1220    0.1090   -4.7510 hc        1 MOL      0.036326
     34 H15         1.5480   -0.0060   -3.8350 hc        1 MOL      0.036326
     35 H16         2.2750   -3.9390   -4.3050 hc        1 MOL      0.090109
     36 H17         2.3200   -2.3550   -5.1560 hc        1 MOL      0.090109
     37 H18         3.8150   -3.1600   -4.5900 hc        1 MOL      0.090109
     38 N3          5.4050   -2.2110   -1.1270 n         1 MOL     -0.065746
     39 C13         6.3070   -3.1850   -0.4450 c3        1 MOL     -0.001517
     40 C14         5.9650   -4.6900   -0.7410 c         1 MOL      0.659497
     41 O6          6.8850   -5.3060   -1.1760 o         1 MOL     -0.580045
     42 C15         6.5250   -2.8740    1.0270 c3        1 MOL     -0.261884
     43 C16         7.1500   -1.4330    1.1600 c         1 MOL      0.783657
     44 O7          8.2840   -1.4300    0.6590 o         1 MOL     -0.728843
     45 O8          6.6430   -0.5360    1.7960 o         1 MOL     -0.728843
     46 H19         4.8750   -1.5950   -0.5400 hn        1 MOL      0.173264
     47 H20         7.2620   -2.9830   -0.9300 h1        1 MOL      0.075089
     48 H21         7.2930   -3.5510    1.3970 hc        1 MOL      0.083386
     49 H22         5.5430   -2.9520    1.5080 hc        1 MOL      0.083386
     50 N4          4.7710   -5.3050   -0.5990 n         1 MOL     -0.683819
     51 C17         3.6740   -4.7360    0.2840 c3        1 MOL      0.317324
     52 C18         3.9900   -4.9110    1.8080 c         1 MOL      0.202854
     53 O9          4.9260   -5.6540    2.2310 o         1 MOL     -0.478507
     54 H23         4.6670   -6.2240   -1.0020 hn        1 MOL      0.331561
     55 H24         2.7510   -5.1890   -0.0670 h1        1 MOL      0.002010
     56 H25         3.4290   -3.7170   -0.0120 h1        1 MOL      0.002010
     57 N5          3.4370   -4.0860    2.7180 n         1 MOL     -0.283553
     58 C19         2.4640   -2.9920    2.7000 c3        1 MOL      0.133134
     59 C20         2.5380   -1.9320    1.6030 c         1 MOL      0.118174
     60 O10         3.5960   -1.4030    1.2060 o         1 MOL     -0.454649
     61 C21         2.4200   -2.2490    4.0010 c3        1 MOL     -0.288267
     62 C22         3.7200   -1.5150    4.4810 c         1 MOL      0.686670
     63 O11         4.0630   -0.4060    4.0370 o         1 MOL     -0.674391
     64 O12         4.4350   -2.1520    5.3140 o         1 MOL     -0.674391
     65 H26         3.8610   -4.2850    3.6230 hn        1 MOL      0.272075
     66 H27         1.5740   -3.6260    2.6920 h1        1 MOL      0.045729
     67 H28         2.1030   -2.9290    4.7860 hc        1 MOL      0.064372
     68 H29         1.6150   -1.5070    4.0070 hc        1 MOL      0.064372
     69 N6          1.5010   -1.3030    1.0600 n         1 MOL     -0.040061
     70 C23         0.1200   -1.7080    1.2750 c3        1 MOL     -0.103120
     71 C24        -0.4130   -2.9030    0.5080 c         1 MOL      0.512286
     72 O13         0.3030   -3.4090   -0.3940 o         1 MOL     -0.479782
     73 H30         1.7010   -0.4920    0.4880 hn        1 MOL      0.145335
     74 H31        -0.4640   -0.8350    1.0020 h1        1 MOL      0.054851
     75 H32         0.0180   -1.9970    2.3140 h1        1 MOL      0.054851
     76 N7         -1.5320   -3.5530    0.9580 n         1 MOL     -0.448845
     77 C25        -2.2030   -4.6820    0.3020 c3        1 MOL     -0.025548
     78 C26        -2.9010   -4.3890   -1.0580 c         1 MOL      0.349031
     79 O14        -3.2270   -5.2790   -1.8450 o         1 MOL     -0.532077
     80 C27        -3.1100   -5.3600    1.3250 c3        1 MOL     -0.010184
     81 C28        -4.1310   -4.6160    2.1800 c3        1 MOL     -0.367880
     82 C29        -5.3220   -4.0860    1.3680 c         1 MOL      0.580673
     83 N8         -6.2080   -4.9670    1.0900 n         1 MOL     -0.680644
     84 O15        -5.4060   -2.9570    0.9370 o         1 MOL     -0.429974
     85 H33        -2.0710   -3.0630    1.6560 hn        1 MOL      0.286169
     86 H34        -1.4220   -5.3920    0.0360 h1        1 MOL      0.125393
     87 H35        -2.3870   -5.8250    1.9980 hc        1 MOL      0.051785
     88 H36        -3.5510   -6.2720    0.9140 hc        1 MOL      0.051785
     89 H37        -3.5830   -3.7340    2.5220 hc        1 MOL      0.114798
     90 H38        -4.4260   -5.2220    3.0360 hc        1 MOL      0.114798
     91 H39        -6.2370   -5.8540    1.5670 hn        1 MOL      0.337575
     92 H40        -6.7920   -4.7790    0.2860 hn        1 MOL      0.337575
     93 N9         -3.1850   -3.1350   -1.3670 n         1 MOL     -0.041784
     94 C30        -3.5520   -2.7580   -2.7150 c3        1 MOL     -0.122969
     95 C31        -4.9130   -2.0350   -2.8440 c         1 MOL      0.376639
     96 O16        -5.3940   -1.7840   -3.9400 o         1 MOL     -0.534578
     97 C32        -2.3980   -1.8740   -3.4340 c3        1 MOL      0.185890
     98 C33        -1.1780   -2.7130   -3.7030 c3        1 MOL     -0.055462
     99 C34        -2.2240   -0.5710   -2.5910 c3        1 MOL     -0.055462
    100 H41        -3.0910   -2.4850   -0.6020 hn        1 MOL      0.146153
    101 H42        -3.6850   -3.6800   -3.2730 h1        1 MOL      0.118527
    102 H43        -2.8480   -1.6610   -4.3960 hc        1 MOL     -0.011785
    103 H44        -0.4980   -2.6850   -2.8540 hc        1 MOL     -0.000591
    104 H45        -1.4150   -3.7270   -4.0310 hc        1 MOL     -0.000591
    105 H46        -0.6500   -2.2700   -4.5490 hc        1 MOL     -0.000591
    106 H47        -3.2080   -0.2440   -2.2340 hc        1 MOL     -0.000591
    107 H48        -1.6720   -0.8050   -1.6830 hc        1 MOL     -0.000591
    108 H49        -1.8130    0.1850   -3.2660 hc        1 MOL     -0.000591
    109 N10        -5.5850   -1.7010   -1.7450 n         1 MOL     -0.100227
    110 C35        -6.9210   -1.0820   -1.6870 c3        1 MOL      0.042771
    111 C36        -6.8990    0.4120   -1.3220 c         1 MOL      0.565093
    112 O17        -7.7330    1.0940   -1.9460 o         1 MOL     -0.578400
    113 C37        -7.9360   -1.8710   -0.8350 c3        1 MOL     -0.348183
    114 C38        -8.3160   -3.2350   -1.3490 c         1 MOL      0.738019
    115 N11        -8.8260   -3.4760   -2.5410 n         1 MOL     -0.798834
    116 O18        -8.2490   -4.1910   -0.5540 o         1 MOL     -0.588704
    117 H50        -5.1600   -2.0320   -0.8980 hn        1 MOL      0.068464
    118 H51        -7.3130   -1.1650   -2.6960 h1        1 MOL      0.033566
    119 H52        -8.8240   -1.2610   -0.6950 hc        1 MOL      0.089002
    120 H53        -7.4050   -1.9060    0.1200 hc        1 MOL      0.089002
    121 H54        -9.0370   -2.7110   -3.1730 hn        1 MOL      0.376259
    122 H55        -8.9490   -4.4100   -2.8960 hn        1 MOL      0.376259
    123 N12        -5.9580    0.9460   -0.5740 n         1 MOL     -0.320986
    124 C39        -5.9560    2.3260   -0.1250 c3        1 MOL      0.067999
    125 C40        -4.5270    2.9010    0.0920 c         1 MOL      0.334400
    126 O19        -3.6160    2.2080    0.5000 o         1 MOL     -0.423533
    127 C41        -6.8390    2.4460    1.1250 c3        1 MOL     -0.123943
    128 C42        -6.6610    1.3020    2.1090 ca        1 MOL     -0.271062
    129 C43        -7.6220    0.2970    2.1750 ca        1 MOL      0.162563
    130 C44        -5.3890    1.1240    2.7660 ca        1 MOL      0.162563
    131 C45        -7.3950   -0.8510    2.9560 ca        1 MOL     -0.477897
    132 C46        -5.1790   -0.0410    3.5540 ca        1 MOL     -0.477897
    133 C47        -6.1510   -1.0310    3.5840 ca        1 MOL      0.464204
    134 O20        -5.8380   -2.2630    4.0630 oh        1 MOL     -0.485822
    135 H56        -5.3110    0.3130   -0.1210 hn        1 MOL      0.265006
    136 H57        -6.2560    2.9010   -1.0030 h1        1 MOL      0.038963
    137 H58        -7.8540    2.4580    0.7480 hc        1 MOL      0.076603
    138 H59        -6.7310    3.4500    1.5420 hc        1 MOL      0.076603
    139 H60        -8.6210    0.4650    1.7790 ha        1 MOL      0.058748
    140 H61        -4.6110    1.8830    2.6620 ha        1 MOL      0.058748
    141 H62        -8.0610   -1.6940    3.0190 ha        1 MOL      0.197632
    142 H63        -4.2740   -0.2210    4.1200 ha        1 MOL      0.197632
    143 H64        -6.6050   -2.8220    4.2040 ho        1 MOL      0.328454
    144 N13        -4.4660    4.2390    0.1700 n         1 MOL     -0.297072
    145 C48        -3.4390    5.1190    0.6890 c3        1 MOL     -0.033811
    146 C49        -2.1470    5.2730   -0.0610 c         1 MOL      0.312455
    147 O21        -1.6320    6.3750   -0.2060 o         1 MOL     -0.386909
    148 C50        -3.2480    4.7860    2.1760 c3        1 MOL     -0.218855
    149 C51        -2.3170    5.7320    3.0430 c3        1 MOL     -0.543501
    150 C52        -2.7520    7.1880    2.9590 c         1 MOL      0.869845
    151 O22        -3.7560    7.5810    3.6600 o         1 MOL     -0.773315
    152 O23        -1.9650    8.0220    2.5000 o         1 MOL     -0.773315
    153 H65        -5.3010    4.7590   -0.0420 hn        1 MOL      0.263469
    154 H66        -3.8740    6.1130    0.6070 h1        1 MOL      0.096825
    155 H67        -2.8330    3.7980    2.3130 hc        1 MOL      0.119121
    156 H68        -4.2350    4.8360    2.6520 hc        1 MOL      0.119121
    157 H69        -1.3160    5.7550    2.6080 hc        1 MOL      0.169024
    158 H70        -2.1990    5.3510    4.0520 hc        1 MOL      0.169024
    159 N14        -1.6710    4.1340   -0.5760 n         1 MOL     -0.037457
    160 C53        -0.3790    4.1200   -1.3750 c3        1 MOL     -0.432452
    161 C54        -0.6490    4.9010   -2.6650 c         1 MOL      0.493436
    162 O24         0.1470    5.6240   -3.1880 o         1 MOL     -0.459983
    163 C55         0.0210    2.6570   -1.7700 c3        1 MOL      0.255177
    164 C56         0.1400    1.6730   -0.5590 c3        1 MOL      0.292017
    165 C57         1.3510    1.9410    0.3970 c         1 MOL      0.656434
    166 O25         1.2730    2.8620    1.2400 o         1 MOL     -0.704064
    167 O26         2.3320    1.2290    0.2730 o         1 MOL     -0.704064
    168 H71        -2.1640    3.2760   -0.3630 hn        1 MOL      0.155357
    169 H72         0.3730    4.6280   -0.7670 h1        1 MOL      0.256060
    170 H73         1.0370    2.6960   -2.1590 hc        1 MOL     -0.060833
    171 H74        -0.6210    2.2600   -2.5610 hc        1 MOL     -0.060833
    172 H75         0.2170    0.6630   -0.9690 hc        1 MOL     -0.128032
    173 H76        -0.7670    1.6430    0.0450 hc        1 MOL     -0.128032
    174 N15        -1.9700    4.9560   -3.1980 n         1 MOL     -0.294857
    175 C58        -2.5270    5.8330   -4.2330 c3        1 MOL     -0.173411
    176 H77        -3.2260    6.5340   -3.7770 h1        1 MOL      0.080315
    177 H78        -1.7200    6.3850   -4.7150 h1        1 MOL      0.080315
    178 H79        -3.0510    5.2310   -4.9760 h1        1 MOL      0.080315
    179 H80        -2.6750    4.4940   -2.6270 hn        1 MOL      0.177062
    180 Ca1         4.4950    0.9790    1.8420 Ca        1 MOL      1.745796
    181 O27         2.9120    2.6530    3.2610 oh        1 MOL     -0.864039
    182 H81         3.0270    3.5980    3.3690 ho        1 MOL      0.415972
    183 H82         2.1930    2.5650    2.6270 ho        1 MOL      0.415972
    184 O28         5.9190    2.1040    3.8220 oh        1 MOL     -0.864039
    185 H83         6.7690    2.3800    3.5010 ho        1 MOL      0.415972
    186 H84         5.7710    2.6320    4.6090 ho        1 MOL      0.415972
@<TRIPOS>BOND
     1    1    2 1   
     2    1    4 1   
     3    1    5 1   
     4    1    6 1   
     5    2    3 2   
     6    2    7 1   
     7    7    8 1   
     8    7   15 1   
     9    8    9 1   
    10    8   11 1   
    11    8   16 1   
    12    9   10 2   
    13    9   19 1   
    14   11   12 1   
    15   11   17 1   
    16   11   18 1   
    17   12   13 1   
    18   12   14 1   
    19   19   20 1   
    20   19   27 1   
    21   20   21 1   
    22   20   23 1   
    23   20   28 1   
    24   21   22 2   
    25   21   38 1   
    26   23   24 1   
    27   23   25 1   
    28   23   29 1   
    29   24   26 1   
    30   24   30 1   
    31   24   31 1   
    32   25   32 1   
    33   25   33 1   
    34   25   34 1   
    35   26   35 1   
    36   26   36 1   
    37   26   37 1   
    38   38   39 1   
    39   38   46 1   
    40   39   40 1   
    41   39   42 1   
    42   39   47 1   
    43   40   41 2   
    44   40   50 1   
    45   42   43 1   
    46   42   48 1   
    47   42   49 1   
    48   43   44 1   
    49   43   45 1   
    50   50   51 1   
    51   50   54 1   
    52   51   52 1   
    53   51   55 1   
    54   51   56 1   
    55   52   53 2   
    56   52   57 1   
    57   57   58 1   
    58   57   65 1   
    59   58   59 1   
    60   58   61 1   
    61   58   66 1   
    62   59   60 2   
    63   59   69 1   
    64   61   62 1   
    65   61   67 1   
    66   61   68 1   
    67   62   63 1   
    68   62   64 1   
    69   69   70 1   
    70   69   73 1   
    71   70   71 1   
    72   70   74 1   
    73   70   75 1   
    74   71   72 2   
    75   71   76 1   
    76   76   77 1   
    77   76   85 1   
    78   77   78 1   
    79   77   80 1   
    80   77   86 1   
    81   78   79 2   
    82   78   93 1   
    83   80   81 1   
    84   80   87 1   
    85   80   88 1   
    86   81   82 1   
    87   81   89 1   
    88   81   90 1   
    89   82   83 1   
    90   82   84 2   
    91   83   91 1   
    92   83   92 1   
    93   93   94 1   
    94   93  100 1   
    95   94   95 1   
    96   94   97 1   
    97   94  101 1   
    98   95   96 2   
    99   95  109 1   
   100   97   98 1   
   101   97   99 1   
   102   97  102 1   
   103   98  103 1   
   104   98  104 1   
   105   98  105 1   
   106   99  106 1   
   107   99  107 1   
   108   99  108 1   
   109  109  110 1   
   110  109  117 1   
   111  110  111 1   
   112  110  113 1   
   113  110  118 1   
   114  111  112 2   
   115  111  123 1   
   116  113  114 1   
   117  113  119 1   
   118  113  120 1   
   119  114  115 1   
   120  114  116 2   
   121  115  121 1   
   122  115  122 1   
   123  123  124 1   
   124  123  135 1   
   125  124  125 1   
   126  124  127 1   
   127  124  136 1   
   128  125  126 2   
   129  125  144 1   
   130  127  128 1   
   131  127  137 1   
   132  127  138 1   
   133  128  129 ar  
   134  128  130 ar  
   135  129  131 ar  
   136  129  139 1   
   137  130  132 ar  
   138  130  140 1   
   139  131  133 ar  
   140  131  141 1   
   141  132  133 ar  
   142  132  142 1   
   143  133  134 1   
   144  134  143 1   
   145  144  145 1   
   146  144  153 1   
   147  145  146 1   
   148  145  148 1   
   149  145  154 1   
   150  146  147 2   
   151  146  159 1   
   152  148  149 1   
   153  148  155 1   
   154  148  156 1   
   155  149  150 1   
   156  149  157 1   
   157  149  158 1   
   158  150  151 1   
   159  150  152 1   
   160  159  160 1   
   161  159  168 1   
   162  160  161 1   
   163  160  163 1   
   164  160  169 1   
   165  161  162 2   
   166  161  174 1   
   167  163  164 1   
   168  163  170 1   
   169  163  171 1   
   170  164  165 1   
   171  164  172 1   
   172  164  173 1   
   173  165  166 1   
   174  165  167 1   
   175  174  175 1   
   176  174  179 1   
   177  175  176 1   
   178  175  177 1   
   179  175  178 1   
   180  181  182 1   
   181  181  183 1   
   182  184  185 1   
   183  184  186 1   
@<TRIPOS>SUBSTRUCTURE
     1 MOL         1 TEMP              0 ****  ****    0 ROOT
