@<TRIPOS>MOLECULE
MOL
  201   193     1     0     0
SMALL
resp


@<TRIPOS>ATOM
      1 C1         10.2800    6.7400   -3.0060 c3        1 MOL     -0.411918
      2 C2          9.9290    5.7340   -1.8120 c         1 MOL      0.667065
      3 O1         10.5710    4.7430   -1.4940 o         1 MOL     -0.590297
      4 H1         11.3530    6.7190   -3.1950 hc        1 MOL      0.106865
      5 H2          9.7470    6.4340   -3.9070 hc        1 MOL      0.106865
      6 H3          9.9790    7.7510   -2.7320 hc        1 MOL      0.106865
      7 N1          8.7900    6.1020   -1.1690 n         1 MOL     -0.513307
      8 C3          8.2130    5.1910   -0.2610 c3        1 MOL      0.148907
      9 C4          7.7440    3.9140   -0.9260 c         1 MOL      0.663945
     10 O2          7.2630    4.0480   -2.0400 o         1 MOL     -0.551303
     11 C5          7.0590    5.9110    0.5480 c3        1 MOL     -0.232681
     12 C6          5.8370    6.4330   -0.2430 c         1 MOL      0.775457
     13 O3          5.9320    7.4410   -0.9620 o         1 MOL     -0.650299
     14 O4          4.7530    5.8340   -0.1470 o         1 MOL     -0.650299
     15 H4          8.2170    6.8480   -1.5330 hn        1 MOL      0.290890
     16 H5          8.9430    4.8910    0.4900 h1        1 MOL      0.009713
     17 H6          7.4640    6.8540    0.9230 hc        1 MOL      0.032201
     18 H7          6.6690    5.3050    1.3600 hc        1 MOL      0.032201
     19 N2          7.7190    2.7540   -0.2410 n         1 MOL     -0.684340
     20 C7          7.1220    1.4970   -0.6820 c3        1 MOL      0.297796
     21 C8          5.8050    1.2270   -0.0010 c         1 MOL      0.539336
     22 O5          5.7770    1.4780    1.2150 o         1 MOL     -0.541907
     23 C9          8.1950    0.3830   -0.4330 c3        1 MOL     -0.097799
     24 C10         7.9080   -0.8220   -1.3320 c3        1 MOL      0.018956
     25 C11         9.0160   -1.8950   -1.4490 c3        1 MOL      0.066761
     26 C12         9.4160   -2.4450   -0.0890 c3        1 MOL      0.101617
     27 N3         10.3590   -3.5350   -0.1580 n4        1 MOL     -0.344000
     28 H8          7.9380    2.8500    0.7440 hn        1 MOL      0.308945
     29 H9          6.9190    1.6000   -1.7460 h1        1 MOL      0.019167
     30 H10         8.1310    0.0600    0.6000 hc        1 MOL      0.026481
     31 H11         9.1760    0.8180   -0.6480 hc        1 MOL      0.026481
     32 H12         7.6720   -0.5000   -2.3460 hc        1 MOL      0.011461
     33 H13         6.9730   -1.2860   -1.0320 hc        1 MOL      0.011461
     34 H14         9.9480   -1.4680   -1.8240 hc        1 MOL     -0.007782
     35 H15         8.6530   -2.6550   -2.1260 hc        1 MOL     -0.007782
     36 H16         8.4540   -2.7530    0.3340 hx        1 MOL      0.048631
     37 H17         9.8030   -1.5830    0.4560 hx        1 MOL      0.048631
     38 H18        10.0940   -4.3640   -0.6710 hn        1 MOL      0.286195
     39 H19        11.2110   -3.1260   -0.5270 hn        1 MOL      0.286195
     40 H20        10.5850   -3.7580    0.8070 hn        1 MOL      0.286195
     41 N4          4.7500    0.8700   -0.7170 n         1 MOL     -0.471619
     42 C13         3.5050    0.4220   -0.1460 c3        1 MOL      0.373127
     43 C14         3.0320   -0.9300   -0.7760 c         1 MOL      0.407911
     44 O6          3.2940   -1.1710   -1.9600 o         1 MOL     -0.569152
     45 C15         2.4620    1.5260   -0.2920 c3        1 MOL     -0.384327
     46 C16         1.2730    1.5650    0.7430 c         1 MOL      0.720807
     47 O7          0.1000    1.9510    0.4460 o         1 MOL     -0.659712
     48 O8          1.5270    1.0180    1.8410 o         1 MOL     -0.659712
     49 H21         4.9420    0.8430   -1.7160 hn        1 MOL      0.259826
     50 H22         3.6790    0.1900    0.9030 h1        1 MOL     -0.024602
     51 H23         2.0720    1.4510   -1.3060 hc        1 MOL      0.129612
     52 H24         2.8930    2.5250   -0.3050 hc        1 MOL      0.129612
     53 N5          2.4360   -1.8530   -0.0700 n         1 MOL     -0.481783
     54 C17         1.9590   -1.8130    1.3010 c3        1 MOL      0.174023
     55 C18         2.0440   -3.1550    1.9890 c         1 MOL      0.341550
     56 O9          3.0430   -3.8840    1.8790 o         1 MOL     -0.561655
     57 H25         2.1570   -2.6610   -0.6180 hn        1 MOL      0.310560
     58 H26         0.8980   -1.5590    1.4040 h1        1 MOL      0.057610
     59 H27         2.5590   -1.0560    1.7990 h1        1 MOL      0.057610
     60 N6          0.9900   -3.5560    2.6570 n         1 MOL      0.076256
     61 C19         0.9060   -4.8730    3.3350 c3        1 MOL      0.105297
     62 C20        -0.2820   -5.6120    2.7580 c         1 MOL      0.426467
     63 O10        -1.3710   -5.0730    2.5710 o         1 MOL     -0.410747
     64 C21         0.7280   -4.8100    4.8670 c3        1 MOL     -0.067062
     65 C22         1.3450   -3.5350    5.5480 c         1 MOL      0.730073
     66 O11         2.4130   -3.6600    6.1950 o         1 MOL     -0.697575
     67 O12         0.7260   -2.4390    5.5560 o         1 MOL     -0.697575
     68 H28         0.1350   -3.0330    2.6710 hn        1 MOL     -0.285153
     69 H29         1.8550   -5.3770    3.1620 h1        1 MOL      0.022490
     70 H30         1.1440   -5.7300    5.2690 hc        1 MOL     -0.014217
     71 H31        -0.3060   -4.9210    5.2030 hc        1 MOL     -0.014217
     72 N7         -0.0480   -6.9310    2.4690 n         1 MOL     -0.425405
     73 C23        -0.9860   -7.7850    1.7540 c3        1 MOL      0.027926
     74 C24        -1.0420   -7.5190    0.2470 c         1 MOL      0.428315
     75 O13        -2.0070   -7.9160   -0.4440 o         1 MOL     -0.522901
     76 H32         0.7720   -7.4090    2.8040 hn        1 MOL      0.303882
     77 H33        -1.9950   -7.5550    2.0840 h1        1 MOL      0.063262
     78 H34        -0.7960   -8.8500    1.9260 h1        1 MOL      0.063262
     79 N8         -0.0300   -6.7510   -0.2270 n         1 MOL     -0.162675
     80 C25         0.0820   -6.3530   -1.6640 c3        1 MOL     -0.165674
     81 C26         0.5580   -4.9210   -1.7930 c         1 MOL      0.217327
     82 O14         1.2980   -4.4020   -0.9980 o         1 MOL     -0.373840
     83 C27         0.9670   -7.3200   -2.4580 c3        1 MOL      0.397042
     84 C28         2.4020   -7.4820   -1.9670 c3        1 MOL     -0.411150
     85 O15         0.4060   -8.5870   -2.3680 oh        1 MOL     -0.582639
     86 H35         0.7650   -6.4130    0.2960 hn        1 MOL      0.181670
     87 H36        -0.9260   -6.3130   -2.0710 h1        1 MOL      0.084020
     88 H37         1.0520   -7.0950   -3.5230 h1        1 MOL     -0.006155
     89 H38        -0.2570   -8.6380   -3.0530 ho        1 MOL      0.375646
     90 H39         2.4290   -7.9600   -0.9880 hc        1 MOL      0.118590
     91 H40         3.0320   -7.9750   -2.6940 hc        1 MOL      0.118590
     92 H41         2.7810   -6.4810   -1.7650 hc        1 MOL      0.118590
     93 N9          0.0200   -4.3020   -2.8270 n         1 MOL     -0.098532
     94 C29         0.0430   -2.7810   -3.0220 c3        1 MOL     -0.196546
     95 C30        -0.9990   -2.2020   -2.1170 c         1 MOL      0.711101
     96 O16        -0.7600   -1.1050   -1.6750 o         1 MOL     -0.506607
     97 C31         0.1760   -2.3470   -4.5070 c3        1 MOL      0.056318
     98 C32         1.2510   -3.2500   -5.2270 c3        1 MOL     -0.044670
     99 C33         0.4990   -0.8620   -4.6730 c3        1 MOL     -0.219372
    100 C34         2.5410   -3.7120   -4.5510 c3        1 MOL     -0.133890
    101 H42        -0.4980   -4.8940   -3.4610 hn        1 MOL      0.189444
    102 H43         0.9610   -2.4340   -2.5450 h1        1 MOL      0.158891
    103 H44        -0.7870   -2.5560   -4.9790 hc        1 MOL      0.017750
    104 H45         1.5330   -2.8030   -6.1790 hc        1 MOL      0.025579
    105 H46         0.7460   -4.1150   -5.6460 hc        1 MOL      0.025579
    106 H47         0.5970   -0.6420   -5.7380 hc        1 MOL      0.069853
    107 H48        -0.2670   -0.2450   -4.2010 hc        1 MOL      0.069853
    108 H49         1.3450   -0.5400   -4.0670 hc        1 MOL      0.069853
    109 H50         2.2660   -4.2820   -3.6680 hc        1 MOL      0.039236
    110 H51         3.0680   -4.3560   -5.2560 hc        1 MOL      0.039236
    111 H52         3.1850   -2.8890   -4.2510 hc        1 MOL      0.039236
    112 N10        -2.1340   -2.8580   -1.9370 n         1 MOL     -0.601914
    113 C35        -3.2590   -2.3630   -1.1360 c3        1 MOL      0.153647
    114 C36        -4.5610   -2.2730   -1.8300 c         1 MOL      0.701166
    115 O17        -4.7630   -2.9430   -2.8350 o         1 MOL     -0.548833
    116 C37        -3.3430   -3.0580    0.2760 c3        1 MOL      0.042301
    117 C38        -3.4910   -4.5300    0.2720 c3        1 MOL     -0.456384
    118 O18        -2.1800   -2.7990    1.0290 oh        1 MOL     -0.447870
    119 H53        -2.2650   -3.7460   -2.4020 hn        1 MOL      0.297487
    120 H54        -3.0950   -1.3110   -0.9280 h1        1 MOL      0.007731
    121 H55        -4.1790   -2.6590    0.8640 h1        1 MOL      0.068202
    122 H56        -2.0390   -3.5390    1.6280 ho        1 MOL      0.392025
    123 H57        -3.7120   -4.8310    1.2950 hc        1 MOL      0.137552
    124 H58        -4.2330   -4.8450   -0.4610 hc        1 MOL      0.137552
    125 H59        -2.6150   -5.0520   -0.1090 hc        1 MOL      0.137552
    126 N11        -5.5040   -1.4200   -1.3180 n         1 MOL     -0.651722
    127 C39        -6.7560   -1.1170   -2.0350 c3        1 MOL      0.002090
    128 C40        -6.9780    0.4130   -2.1840 c         1 MOL      0.713316
    129 O19        -7.4030    0.8240   -3.3030 o         1 MOL     -0.579347
    130 C41        -7.9580   -1.7930   -1.4720 c3        1 MOL      0.347943
    131 C42        -9.2530   -1.7960   -2.3830 c3        1 MOL     -0.375888
    132 O20        -8.0840   -1.3970   -0.1190 oh        1 MOL     -0.655172
    133 H60        -5.2850   -0.9590   -0.4460 hn        1 MOL      0.296700
    134 H61        -6.7410   -1.5190   -3.0470 h1        1 MOL      0.092010
    135 H62        -7.6800   -2.8460   -1.3560 h1        1 MOL      0.008229
    136 H63        -8.5020   -2.1250    0.3510 ho        1 MOL      0.411519
    137 H64        -9.6320   -0.7770   -2.2750 hc        1 MOL      0.103001
    138 H65        -9.0180   -2.0120   -3.4170 hc        1 MOL      0.103001
    139 H66        -9.9680   -2.5320   -2.0050 hc        1 MOL      0.103001
    140 N12        -6.6010    1.1680   -1.1400 n         1 MOL     -0.590569
    141 C43        -6.8570    2.5950   -1.0640 c3        1 MOL     -0.026227
    142 C44        -5.9560    3.1150    0.0420 c         1 MOL      0.574281
    143 O21        -6.0190    2.6970    1.1650 o         1 MOL     -0.525504
    144 C45        -8.3220    2.7670   -0.6590 c3        1 MOL     -0.061193
    145 C46        -8.8080    4.1670   -1.1020 c3        1 MOL      0.059140
    146 C47       -10.1880    4.4650   -0.6120 c3        1 MOL     -0.024498
    147 C48       -11.0000    5.4480   -1.4440 c3        1 MOL      0.049926
    148 N13       -11.9860    6.0270   -0.6320 n4        1 MOL     -0.170562
    149 H67        -6.3880    0.7190   -0.2630 hn        1 MOL      0.354388
    150 H68        -6.6470    3.0740   -2.0200 h1        1 MOL      0.108128
    151 H69        -8.4350    2.4560    0.3830 hc        1 MOL      0.047824
    152 H70        -8.9590    2.0730   -1.2090 hc        1 MOL      0.047824
    153 H71        -8.6570    4.2060   -2.1850 hc        1 MOL     -0.009564
    154 H72        -8.0030    4.8230   -0.7940 hc        1 MOL     -0.009564
    155 H73       -10.1050    4.7860    0.4240 hc        1 MOL      0.022866
    156 H74       -10.7250    3.5110   -0.5540 hc        1 MOL      0.022866
    157 H75       -11.4420    4.8640   -2.2450 hx        1 MOL      0.064640
    158 H76       -10.4520    6.2790   -1.8970 hx        1 MOL      0.064640
    159 H77       -11.5890    6.3320    0.2550 hn        1 MOL      0.197799
    160 H78       -12.3610    6.8120   -1.1420 hn        1 MOL      0.197799
    161 H79       -12.7320    5.3800   -0.4240 hn        1 MOL      0.197799
    162 N14        -5.1810    4.1220   -0.3290 n         1 MOL     -0.590426
    163 C49        -3.9790    4.5990    0.5120 c3        1 MOL      0.502749
    164 C50        -2.8500    3.5290    0.6690 c         1 MOL      0.303787
    165 O22        -2.4730    3.1530    1.8020 o         1 MOL     -0.632908
    166 C51        -3.5710    5.9480    0.0540 c3        1 MOL     -0.154305
    167 C52        -2.8480    6.6050    1.1590 c3        1 MOL     -0.399302
    168 C53        -2.4890    8.0060    0.6820 c         1 MOL      0.784258
    169 O23        -1.4100    8.5140    0.9100 o         1 MOL     -0.645143
    170 O24        -3.3050    8.7350    0.0940 o         1 MOL     -0.645143
    171 H80        -5.3200    4.4710   -1.2700 hn        1 MOL      0.305392
    172 H81        -4.2810    4.7250    1.5560 h1        1 MOL     -0.040285
    173 H82        -4.3870    6.5400   -0.3540 hc        1 MOL      0.045798
    174 H83        -2.9050    5.8360   -0.7990 hc        1 MOL      0.045798
    175 H84        -1.9560    6.0150    1.3620 hc        1 MOL      0.113559
    176 H85        -3.5220    6.7130    2.0130 hc        1 MOL      0.113559
    177 N15        -2.3100    2.8840   -0.3920 n         1 MOL     -0.196421
    178 C54        -2.3920    3.1270   -1.8340 c3        1 MOL      0.071773
    179 H86        -1.3870    3.2210   -2.2430 h1        1 MOL      0.021133
    180 H87        -2.9030    2.2930   -2.3150 h1        1 MOL      0.021133
    181 H88        -2.9460    4.0470   -2.0170 h1        1 MOL      0.021133
    182 H89        -1.6040    2.2160   -0.0980 hn        1 MOL      0.163084
    183 Ca1        -0.8130    1.3670    3.0990 Ca        1 MOL      1.708695
    184 O25         1.0430    1.4030    4.8850 oh        1 MOL     -0.805457
    185 O26         0.5830    3.7880    3.3520 oh        1 MOL     -0.805457
    186 H90         1.5730    2.0780    5.3090 ho        1 MOL      0.404867
    187 H91         0.0690    4.5370    3.6580 ho        1 MOL      0.404867
    188 H92         1.6460    0.9540    4.2930 ho        1 MOL      0.404867
    189 H93         1.4200    4.1650    3.0920 ho        1 MOL      0.404867
    190 O27        -1.9630    2.2640    5.3720 oh        1 MOL     -0.805457
    191 H94        -2.8000    1.8610    5.6160 ho        1 MOL      0.404867
    192 H95        -2.0200    3.1590    5.7080 ho        1 MOL      0.404867
    193 O28        -0.6120   -1.3280    3.5780 oh        1 MOL     -0.805457
    194 H96        -1.4920   -1.6880    3.7350 ho        1 MOL      0.404867
    195 H97        -0.0730   -1.7370    4.2650 ho        1 MOL      0.404867
    196 O29        -3.3170    0.4790    3.6890 oh        1 MOL     -0.805457
    197 H98        -3.3690   -0.2830    4.2670 ho        1 MOL      0.404867
    198 H99        -3.8010    1.1580    4.1510 ho        1 MOL      0.404867
    199 O30        -1.5440   -0.2610    1.1030 oh        1 MOL     -0.805457
    200 H100       -1.9840   -1.0860    0.9090 ho        1 MOL      0.404867
    201 H101       -1.0130   -0.0770    0.3180 ho        1 MOL      0.404867
@<TRIPOS>BOND
     1    1    2 1   
     2    1    4 1   
     3    1    5 1   
     4    1    6 1   
     5    2    3 2   
     6    2    7 1   
     7    7    8 1   
     8    7   15 1   
     9    8    9 1   
    10    8   11 1   
    11    8   16 1   
    12    9   10 2   
    13    9   19 1   
    14   11   12 1   
    15   11   17 1   
    16   11   18 1   
    17   12   13 1   
    18   12   14 1   
    19   19   20 1   
    20   19   28 1   
    21   20   21 1   
    22   20   23 1   
    23   20   29 1   
    24   21   22 2   
    25   21   41 1   
    26   23   24 1   
    27   23   30 1   
    28   23   31 1   
    29   24   25 1   
    30   24   32 1   
    31   24   33 1   
    32   25   26 1   
    33   25   34 1   
    34   25   35 1   
    35   26   27 1   
    36   26   36 1   
    37   26   37 1   
    38   27   38 1   
    39   27   39 1   
    40   27   40 1   
    41   41   42 1   
    42   41   49 1   
    43   42   43 1   
    44   42   45 1   
    45   42   50 1   
    46   43   44 2   
    47   43   53 1   
    48   45   46 1   
    49   45   51 1   
    50   45   52 1   
    51   46   47 1   
    52   46   48 1   
    53   53   54 1   
    54   53   57 1   
    55   54   55 1   
    56   54   58 1   
    57   54   59 1   
    58   55   56 2   
    59   55   60 1   
    60   60   61 1   
    61   60   68 1   
    62   61   62 1   
    63   61   64 1   
    64   61   69 1   
    65   62   63 2   
    66   62   72 1   
    67   64   65 1   
    68   64   70 1   
    69   64   71 1   
    70   65   66 1   
    71   65   67 1   
    72   72   73 1   
    73   72   76 1   
    74   73   74 1   
    75   73   77 1   
    76   73   78 1   
    77   74   75 2   
    78   74   79 1   
    79   79   80 1   
    80   79   86 1   
    81   80   81 1   
    82   80   83 1   
    83   80   87 1   
    84   81   82 2   
    85   81   93 1   
    86   83   84 1   
    87   83   85 1   
    88   83   88 1   
    89   84   90 1   
    90   84   91 1   
    91   84   92 1   
    92   85   89 1   
    93   93   94 1   
    94   93  101 1   
    95   94   95 1   
    96   94   97 1   
    97   94  102 1   
    98   95   96 2   
    99   95  112 1   
   100   97   98 1   
   101   97   99 1   
   102   97  103 1   
   103   98  100 1   
   104   98  104 1   
   105   98  105 1   
   106   99  106 1   
   107   99  107 1   
   108   99  108 1   
   109  100  109 1   
   110  100  110 1   
   111  100  111 1   
   112  112  113 1   
   113  112  119 1   
   114  113  114 1   
   115  113  116 1   
   116  113  120 1   
   117  114  115 2   
   118  114  126 1   
   119  116  117 1   
   120  116  118 1   
   121  116  121 1   
   122  117  123 1   
   123  117  124 1   
   124  117  125 1   
   125  118  122 1   
   126  126  127 1   
   127  126  133 1   
   128  127  128 1   
   129  127  130 1   
   130  127  134 1   
   131  128  129 2   
   132  128  140 1   
   133  130  131 1   
   134  130  132 1   
   135  130  135 1   
   136  131  137 1   
   137  131  138 1   
   138  131  139 1   
   139  132  136 1   
   140  140  141 1   
   141  140  149 1   
   142  141  142 1   
   143  141  144 1   
   144  141  150 1   
   145  142  143 2   
   146  142  162 1   
   147  144  145 1   
   148  144  151 1   
   149  144  152 1   
   150  145  146 1   
   151  145  153 1   
   152  145  154 1   
   153  146  147 1   
   154  146  155 1   
   155  146  156 1   
   156  147  148 1   
   157  147  157 1   
   158  147  158 1   
   159  148  159 1   
   160  148  160 1   
   161  148  161 1   
   162  162  163 1   
   163  162  171 1   
   164  163  164 1   
   165  163  166 1   
   166  163  172 1   
   167  164  165 2   
   168  164  177 1   
   169  166  167 1   
   170  166  173 1   
   171  166  174 1   
   172  167  168 1   
   173  167  175 1   
   174  167  176 1   
   175  168  169 1   
   176  168  170 1   
   177  177  178 1   
   178  177  182 1   
   179  178  179 1   
   180  178  180 1   
   181  178  181 1   
   182  184  186 1   
   183  184  188 1   
   184  185  187 1   
   185  185  189 1   
   186  190  191 1   
   187  190  192 1   
   188  193  194 1   
   189  193  195 1   
   190  196  197 1   
   191  196  198 1   
   192  199  200 1   
   193  199  201 1   
@<TRIPOS>SUBSTRUCTURE
     1 MOL         1 TEMP              0 ****  ****    0 ROOT
