@<TRIPOS>MOLECULE
MOL
  182   178     1     0     0
SMALL
resp


@<TRIPOS>ATOM
      1 C1          0.0610   -3.3210    6.1600 c3        1 MOL     -0.398105
      2 C2          0.1620   -3.3400    4.6520 c         1 MOL      0.764387
      3 O1         -0.7720   -3.6340    3.8690 o         1 MOL     -0.602176
      4 H1         -0.9290   -3.6640    6.4610 hc        1 MOL      0.114353
      5 H2          0.8190   -3.9790    6.5840 hc        1 MOL      0.114353
      6 H3          0.2180   -2.3050    6.5220 hc        1 MOL      0.114353
      7 N1          1.4660   -3.1210    4.2520 n         1 MOL     -0.604255
      8 C3          1.9260   -3.0900    2.8810 c3        1 MOL      0.019800
      9 C4          1.9080   -4.4270    2.0800 c         1 MOL      0.544834
     10 O2          2.3540   -5.4640    2.5560 o         1 MOL     -0.551794
     11 C5          3.2060   -2.2460    2.8000 c3        1 MOL     -0.132916
     12 C6          3.4040   -1.5850    1.4450 c         1 MOL      0.199042
     13 O3          4.1090   -0.5660    1.4670 o         1 MOL     -0.575432
     14 O4          2.8740   -2.0420    0.3980 o         1 MOL     -0.575432
     15 H4          2.1300   -2.8720    4.9800 hn        1 MOL      0.313693
     16 H5          1.1140   -2.5450    2.3930 h1        1 MOL      0.143142
     17 H6          4.0530   -2.9140    2.9650 hc        1 MOL      0.112588
     18 H7          3.1580   -1.5760    3.6550 hc        1 MOL      0.112588
     19 N2          1.5920   -4.3500    0.7750 n         1 MOL     -0.351802
     20 C7          1.7590   -5.4860   -0.1630 c3        1 MOL     -0.074126
     21 C8          3.1090   -5.4030   -1.0130 c         1 MOL      0.577404
     22 O5          3.4230   -6.4570   -1.5770 o         1 MOL     -0.569271
     23 C9          0.4670   -5.5880   -1.0540 c3        1 MOL      0.127776
     24 C10         0.3140   -6.9410   -1.8140 c3        1 MOL      0.028571
     25 C11        -1.0500   -6.9030   -2.5400 c3        1 MOL      0.015166
     26 C12        -1.4490   -8.2580   -3.2550 c3        1 MOL      0.036076
     27 N3         -2.8390   -8.2330   -3.8400 n4        1 MOL     -0.242043
     28 H8          1.2200   -3.4930    0.3890 hn        1 MOL      0.301427
     29 H9          1.7870   -6.3930    0.4430 h1        1 MOL      0.114808
     30 H10         0.4530   -4.7570   -1.7620 hc        1 MOL     -0.072166
     31 H11        -0.3610   -5.3700   -0.3680 hc        1 MOL     -0.072166
     32 H12         0.3660   -7.7840   -1.1380 hc        1 MOL      0.014533
     33 H13         1.0830   -7.0590   -2.5790 hc        1 MOL      0.014533
     34 H14        -0.9810   -6.1670   -3.3390 hc        1 MOL      0.021456
     35 H15        -1.8520   -6.5540   -1.8860 hc        1 MOL      0.021456
     36 H16        -1.4000   -9.0320   -2.4790 hx        1 MOL      0.064763
     37 H17        -0.7090   -8.5210   -4.0040 hx        1 MOL      0.064763
     38 H18        -3.5750   -8.2840   -3.1480 hn        1 MOL      0.243347
     39 H19        -2.9760   -7.4900   -4.5020 hn        1 MOL      0.243347
     40 H20        -2.9640   -9.1160   -4.3110 hn        1 MOL      0.243347
     41 N4          3.9000   -4.3100   -0.9450 n         1 MOL     -0.408674
     42 C13         5.2220   -4.2430   -1.5580 c3        1 MOL      0.136107
     43 C14         6.3930   -3.9090   -0.6010 c         1 MOL      0.407976
     44 O6          7.5230   -4.3090   -0.8200 o         1 MOL     -0.527589
     45 C15         5.1480   -3.2840   -2.7340 c3        1 MOL     -0.393640
     46 C16         4.4060   -1.9580   -2.5710 c         1 MOL      0.928553
     47 O7          3.2790   -1.7060   -2.9920 o         1 MOL     -0.837906
     48 O8          4.9200   -1.1160   -1.8440 o         1 MOL     -0.837906
     49 H21         3.6070   -3.5060   -0.4020 hn        1 MOL      0.223579
     50 H22         5.4830   -5.2420   -1.9180 h1        1 MOL      0.086598
     51 H23         4.6180   -3.8230   -3.5250 hc        1 MOL      0.106463
     52 H24         6.1410   -3.1060   -3.1460 hc        1 MOL      0.106463
     53 N5          6.0750   -3.1840    0.4210 n         1 MOL     -0.191468
     54 C17         6.9790   -2.5680    1.3740 c3        1 MOL     -0.083004
     55 C18         7.5180   -1.1790    1.0910 c         1 MOL      0.512760
     56 O9          8.4870   -0.7520    1.6990 o         1 MOL     -0.571862
     57 H25         5.1140   -2.8840    0.4250 hn        1 MOL      0.175921
     58 H26         7.9020   -3.1470    1.4200 h1        1 MOL      0.089967
     59 H27         6.4750   -2.7330    2.3200 h1        1 MOL      0.089967
     60 N6          6.9280   -0.4340    0.1570 n         1 MOL     -0.148208
     61 C19         7.2740    0.9260   -0.3020 c3        1 MOL      0.030903
     62 C20         6.1650    1.9160   -0.3610 c         1 MOL      0.435254
     63 O10         5.0090    1.5540   -0.5890 o         1 MOL     -0.449614
     64 C21         7.9520    0.7400   -1.7070 c3        1 MOL     -0.319702
     65 C22         8.5500    2.0140   -2.2640 c         1 MOL      0.673626
     66 N7          9.6860    2.3400   -1.7360 n         1 MOL     -0.766285
     67 O11         7.9190    2.8230   -2.9140 o         1 MOL     -0.579877
     68 H28         6.1220   -0.8460   -0.3020 hn        1 MOL      0.193060
     69 H29         8.0480    1.2850    0.3650 h1        1 MOL      0.033662
     70 H30         7.2060    0.3280   -2.3970 hc        1 MOL      0.116430
     71 H31         8.7580    0.0070   -1.6560 hc        1 MOL      0.116430
     72 H32        10.1880    1.7380   -1.1060 hn        1 MOL      0.354769
     73 H33         9.9780    3.3070   -1.6670 hn        1 MOL      0.354769
     74 N8          6.5700    3.1910   -0.1940 n         1 MOL     -0.264696
     75 C23         5.7730    4.4340   -0.4300 c3        1 MOL     -0.150995
     76 C24         4.6670    4.5780    0.5390 c         1 MOL      0.532460
     77 O12         4.8380    4.3080    1.7430 o         1 MOL     -0.515417
     78 H34         7.5300    3.2930    0.0990 hn        1 MOL      0.264599
     79 H35         5.3490    4.4040   -1.4390 h1        1 MOL      0.098711
     80 H36         6.4530    5.2800   -0.3570 h1        1 MOL      0.098711
     81 N9          3.4690    4.7310   -0.0170 n         1 MOL     -0.541708
     82 C25         2.2330    4.6720    0.7840 c3        1 MOL      0.483614
     83 C26         1.7030    3.2460    1.0240 c         1 MOL      0.535080
     84 O13         2.1670    2.3180    0.3670 o         1 MOL     -0.537068
     85 C27         1.2010    5.3630   -0.0210 c3        1 MOL     -0.062130
     86 C28         1.5100    6.7940   -0.5630 ca        1 MOL      0.156606
     87 C29         2.1150    7.7490    0.3200 ca        1 MOL     -0.308185
     88 C30         1.3090    7.0680   -1.8910 ca        1 MOL     -0.308185
     89 C31         2.2800    9.1380   -0.1330 ca        1 MOL     -0.123769
     90 C32         1.4230    8.3640   -2.2710 ca        1 MOL     -0.123769
     91 C33         1.9230    9.4450   -1.4460 ca        1 MOL      0.190244
     92 O14         1.9060   10.7070   -1.8750 oh        1 MOL     -0.387248
     93 H37         3.3810    4.8390   -1.0160 hn        1 MOL      0.265251
     94 H38         2.3220    5.1730    1.7440 h1        1 MOL     -0.041301
     95 H39         0.2570    5.4780    0.5270 hc        1 MOL     -0.011854
     96 H40         1.0200    4.7660   -0.9180 hc        1 MOL     -0.011854
     97 H41         2.3640    7.4450    1.3250 ha        1 MOL      0.163619
     98 H42         0.8300    6.3540   -2.5460 ha        1 MOL      0.163619
     99 H43         2.7200    9.8700    0.5250 ha        1 MOL      0.134785
    100 H44         1.0650    8.5130   -3.2800 ha        1 MOL      0.134785
    101 H45         1.7510   10.6300   -2.8200 ho        1 MOL      0.325200
    102 N10         0.6370    3.1950    1.8200 n         1 MOL     -0.710363
    103 C34         0.0650    1.9280    2.4010 c3        1 MOL      0.042445
    104 C35        -0.2170    0.7780    1.3610 c         1 MOL      0.555827
    105 O15         0.7000    0.0740    0.9220 o         1 MOL     -0.434762
    106 C36         1.0000    1.4860    3.5680 c3        1 MOL      0.212758
    107 C37         0.5350    0.3050    4.3900 c3        1 MOL     -0.070629
    108 C38         1.2090    2.7000    4.4910 c3        1 MOL     -0.420315
    109 C39        -0.8470    0.4220    5.0640 c3        1 MOL     -0.105664
    110 H46         0.2930    3.9950    2.3430 hn        1 MOL      0.359378
    111 H47        -0.9450    2.1590    2.7230 h1        1 MOL      0.082605
    112 H48         2.0090    1.2950    3.1850 hc        1 MOL      0.075548
    113 H49         1.2890   -0.1010    5.0690 hc        1 MOL      0.024851
    114 H50         0.3760   -0.4930    3.6580 hc        1 MOL      0.024851
    115 H51         1.9780    3.3340    4.0680 hc        1 MOL      0.106673
    116 H52         0.2330    3.1630    4.6420 hc        1 MOL      0.106673
    117 H53         1.5320    2.2230    5.4210 hc        1 MOL      0.106673
    118 H54        -0.8800    1.2010    5.8240 hc        1 MOL      0.023205
    119 H55        -1.5860    0.7750    4.3360 hc        1 MOL      0.023205
    120 H56        -1.0820   -0.5110    5.5790 hc        1 MOL      0.023205
    121 N11        -1.5130    0.4260    1.0970 n         1 MOL     -0.438172
    122 C40        -1.8490   -0.6950    0.1270 c3        1 MOL     -0.368343
    123 C41        -3.2520   -0.6890   -0.4130 c         1 MOL      0.728514
    124 O16        -3.6210   -1.3610   -1.3810 o         1 MOL     -0.597926
    125 C42        -1.5290   -2.0190    0.8190 c3        1 MOL     -0.000933
    126 O17        -2.1250   -1.9930    2.0980 oh        1 MOL     -0.611935
    127 H57        -2.2870    0.8170    1.6080 hn        1 MOL      0.332086
    128 H58        -1.3300   -0.5600   -0.8160 h1        1 MOL      0.195719
    129 H59        -0.4400   -2.0620    0.9060 h1        1 MOL      0.110887
    130 H60        -2.0240   -2.8870    0.3710 h1        1 MOL      0.110887
    131 H61        -1.7870   -2.7590    2.5660 ho        1 MOL      0.434172
    132 N12        -4.1520    0.1040    0.1560 n         1 MOL     -0.373299
    133 C43        -5.6210    0.1390   -0.1470 c3        1 MOL      0.030138
    134 C44        -5.8520    0.8020   -1.5600 c         1 MOL      0.644045
    135 O18        -4.9250    1.4790   -2.0470 o         1 MOL     -0.589666
    136 C45        -6.2500    0.8800    1.0220 c3        1 MOL     -0.166371
    137 H62        -3.7890    0.8050    0.8000 hn        1 MOL      0.200850
    138 H63        -6.0140   -0.8720   -0.2640 h1        1 MOL      0.105208
    139 H64        -7.3430    0.9440    0.9290 hc        1 MOL      0.063980
    140 H65        -6.1190    0.2960    1.9350 hc        1 MOL      0.063980
    141 H66        -5.8940    1.8950    1.1580 hc        1 MOL      0.063980
    142 N13        -7.0050    0.6370   -2.1780 n         1 MOL     -0.604256
    143 C46        -8.2620   -0.0530   -1.7630 c3        1 MOL      0.169668
    144 C47        -9.5220    0.6970   -2.2390 c         1 MOL      0.506118
    145 O19        -9.5600    0.9760   -3.4710 o         1 MOL     -0.547575
    146 C48        -8.1430   -1.5050   -2.3420 c3        1 MOL     -0.099914
    147 H67        -7.0820    1.1390   -3.0590 hn        1 MOL      0.335657
    148 H68        -8.3730   -0.1570   -0.6760 h1        1 MOL      0.013317
    149 H69        -7.3000   -2.0410   -1.9080 hc        1 MOL      0.043062
    150 H70        -9.0410   -2.0660   -2.0880 hc        1 MOL      0.043062
    151 H71        -8.0820   -1.6110   -3.4250 hc        1 MOL      0.043062
    152 N14       -10.5070    1.1880   -1.4150 n         1 MOL     -0.459023
    153 C49       -10.6250    0.9080    0.0560 c3        1 MOL     -0.011960
    154 C50       -10.0170    2.1090    0.8730 c         1 MOL      0.392989
    155 O20        -9.5640    1.8630    1.9530 o         1 MOL     -0.490721
    156 C51       -12.1320    0.6330    0.4240 c3        1 MOL     -0.163579
    157 C52       -12.6050   -0.7820    0.0030 c3        1 MOL     -0.075235
    158 C53       -14.1400   -0.9710    0.1850 c         1 MOL      0.668474
    159 O21       -14.8100   -1.4280   -0.7730 o         1 MOL     -0.645833
    160 O22       -14.6970   -0.6370    1.2600 o         1 MOL     -0.645833
    161 H72       -11.2600    1.7100   -1.8320 hn        1 MOL      0.334518
    162 H73       -10.0260    0.0360    0.3130 h1        1 MOL      0.124202
    163 H74       -12.7390    1.3670   -0.1000 hc        1 MOL      0.086551
    164 H75       -12.1900    0.6170    1.5100 hc        1 MOL      0.086551
    165 H76       -12.0950   -1.4980    0.6400 hc        1 MOL      0.001795
    166 H77       -12.3340   -1.0150   -1.0210 hc        1 MOL      0.001795
    167 N15        -9.7550    3.3190    0.3930 n         1 MOL     -0.216533
    168 C54        -9.0690    4.3810    1.0790 c3        1 MOL     -0.223114
    169 H78        -9.6470    4.6820    1.9530 h1        1 MOL      0.106327
    170 H79        -8.0860    4.0330    1.3970 h1        1 MOL      0.106327
    171 H80        -8.9540    5.2320    0.4090 h1        1 MOL      0.106327
    172 H81        -9.9770    3.5020   -0.5740 hn        1 MOL      0.205886
    173 Ca1         2.7340    0.0870   -1.1750 Ca        1 MOL      1.815569
    174 O23         0.3450    0.9730   -2.3330 oh        1 MOL     -0.855278
    175 H82         0.5850    1.5570   -3.0520 ho        1 MOL      0.418890
    176 H83        -0.5870    1.1490   -2.1790 ho        1 MOL      0.418890
    177 O24         3.1200    2.3410   -2.6140 oh        1 MOL     -0.855278
    178 H84         3.4630    2.1170   -3.4770 ho        1 MOL      0.418890
    179 H85         3.2360    3.2940   -2.5440 ho        1 MOL      0.418890
    180 O25         0.8920   -2.0630   -1.6110 oh        1 MOL     -0.855278
    181 H86         1.4610   -2.3970   -2.3050 ho        1 MOL      0.418890
    182 H87         0.0030   -2.2070   -1.9290 ho        1 MOL      0.418890
@<TRIPOS>BOND
     1    1    2 1   
     2    1    4 1   
     3    1    5 1   
     4    1    6 1   
     5    2    3 2   
     6    2    7 1   
     7    7    8 1   
     8    7   15 1   
     9    8    9 1   
    10    8   11 1   
    11    8   16 1   
    12    9   10 2   
    13    9   19 1   
    14   11   12 1   
    15   11   17 1   
    16   11   18 1   
    17   12   13 1   
    18   12   14 1   
    19   19   20 1   
    20   19   28 1   
    21   20   21 1   
    22   20   23 1   
    23   20   29 1   
    24   21   22 2   
    25   21   41 1   
    26   23   24 1   
    27   23   30 1   
    28   23   31 1   
    29   24   25 1   
    30   24   32 1   
    31   24   33 1   
    32   25   26 1   
    33   25   34 1   
    34   25   35 1   
    35   26   27 1   
    36   26   36 1   
    37   26   37 1   
    38   27   38 1   
    39   27   39 1   
    40   27   40 1   
    41   41   42 1   
    42   41   49 1   
    43   42   43 1   
    44   42   45 1   
    45   42   50 1   
    46   43   44 2   
    47   43   53 1   
    48   45   46 1   
    49   45   51 1   
    50   45   52 1   
    51   46   47 1   
    52   46   48 1   
    53   53   54 1   
    54   53   57 1   
    55   54   55 1   
    56   54   58 1   
    57   54   59 1   
    58   55   56 2   
    59   55   60 1   
    60   60   61 1   
    61   60   68 1   
    62   61   62 1   
    63   61   64 1   
    64   61   69 1   
    65   62   63 2   
    66   62   74 1   
    67   64   65 1   
    68   64   70 1   
    69   64   71 1   
    70   65   66 1   
    71   65   67 2   
    72   66   72 1   
    73   66   73 1   
    74   74   75 1   
    75   74   78 1   
    76   75   76 1   
    77   75   79 1   
    78   75   80 1   
    79   76   77 2   
    80   76   81 1   
    81   81   82 1   
    82   81   93 1   
    83   82   83 1   
    84   82   85 1   
    85   82   94 1   
    86   83   84 2   
    87   83  102 1   
    88   85   86 1   
    89   85   95 1   
    90   85   96 1   
    91   86   87 ar  
    92   86   88 ar  
    93   87   89 ar  
    94   87   97 1   
    95   88   90 ar  
    96   88   98 1   
    97   89   91 ar  
    98   89   99 1   
    99   90   91 ar  
   100   90  100 1   
   101   91   92 1   
   102   92  101 1   
   103  102  103 1   
   104  102  110 1   
   105  103  104 1   
   106  103  106 1   
   107  103  111 1   
   108  104  105 2   
   109  104  121 1   
   110  106  107 1   
   111  106  108 1   
   112  106  112 1   
   113  107  109 1   
   114  107  113 1   
   115  107  114 1   
   116  108  115 1   
   117  108  116 1   
   118  108  117 1   
   119  109  118 1   
   120  109  119 1   
   121  109  120 1   
   122  121  122 1   
   123  121  127 1   
   124  122  123 1   
   125  122  125 1   
   126  122  128 1   
   127  123  124 2   
   128  123  132 1   
   129  125  126 1   
   130  125  129 1   
   131  125  130 1   
   132  126  131 1   
   133  132  133 1   
   134  132  137 1   
   135  133  134 1   
   136  133  136 1   
   137  133  138 1   
   138  134  135 2   
   139  134  142 1   
   140  136  139 1   
   141  136  140 1   
   142  136  141 1   
   143  142  143 1   
   144  142  147 1   
   145  143  144 1   
   146  143  146 1   
   147  143  148 1   
   148  144  145 2   
   149  144  152 1   
   150  146  149 1   
   151  146  150 1   
   152  146  151 1   
   153  152  153 1   
   154  152  161 1   
   155  153  154 1   
   156  153  156 1   
   157  153  162 1   
   158  154  155 2   
   159  154  167 1   
   160  156  157 1   
   161  156  163 1   
   162  156  164 1   
   163  157  158 1   
   164  157  165 1   
   165  157  166 1   
   166  158  159 1   
   167  158  160 1   
   168  167  168 1   
   169  167  172 1   
   170  168  169 1   
   171  168  170 1   
   172  168  171 1   
   173  174  175 1   
   174  174  176 1   
   175  177  178 1   
   176  177  179 1   
   177  180  181 1   
   178  180  182 1   
@<TRIPOS>SUBSTRUCTURE
     1 MOL         1 TEMP              0 ****  ****    0 ROOT
