@<TRIPOS>MOLECULE
MOL
  195   189     1     0     0
SMALL
resp


@<TRIPOS>ATOM
      1 C1          5.9710   -5.0490    1.1560 c3        1 MOL     -0.252556
      2 C2          5.1790   -3.9750    0.4690 c         1 MOL      0.718170
      3 O1          5.7990   -3.1740   -0.2410 o         1 MOL     -0.652627
      4 H1          5.6420   -6.0260    0.8030 hc        1 MOL      0.056819
      5 H2          7.0300   -4.9200    0.9320 hc        1 MOL      0.056819
      6 H3          5.8180   -4.9810    2.2340 hc        1 MOL      0.056819
      7 N1          3.9000   -3.8110    0.6500 n         1 MOL     -0.486197
      8 C3          2.9670   -4.6240    1.4800 c3        1 MOL      0.097930
      9 C4          2.2670   -5.7330    0.6390 c         1 MOL      0.564813
     10 O2          2.0780   -6.8270    1.0780 o         1 MOL     -0.580568
     11 C5          1.9160   -3.6720    2.0920 c3        1 MOL     -0.369642
     12 C6          2.4790   -2.3740    2.5840 c         1 MOL      0.863709
     13 O3          2.3880   -1.3310    1.9450 o         1 MOL     -0.733490
     14 O4          2.8220   -2.3350    3.8330 o         1 MOL     -0.733490
     15 H4          3.5310   -3.0270    0.1320 hn        1 MOL      0.282338
     16 H5          3.3970   -5.1110    2.3490 h1        1 MOL      0.058981
     17 H6          1.4490   -4.2150    2.9120 hc        1 MOL      0.087149
     18 H7          1.1640   -3.3970    1.3530 hc        1 MOL      0.087149
     19 N2          2.1050   -5.4830   -0.6510 n         1 MOL     -0.109658
     20 C7          1.7900   -6.4500   -1.7420 c3        1 MOL     -0.549777
     21 C8          0.2640   -6.8000   -1.8710 c         1 MOL      0.618909
     22 O5         -0.0450   -7.7360   -2.6220 o         1 MOL     -0.579626
     23 C9          2.3350   -5.9490   -3.0710 c3        1 MOL      0.335957
     24 C10         1.7410   -4.5970   -3.5390 c3        1 MOL      0.186134
     25 C11         3.8560   -5.8590   -2.8930 c3        1 MOL     -0.189862
     26 C12         1.8490   -4.5410   -5.0790 c3        1 MOL     -0.524048
     27 H8          2.2660   -4.5220   -0.9290 hn        1 MOL      0.054497
     28 H9          2.2160   -7.4020   -1.4330 h1        1 MOL      0.193537
     29 H10         2.0500   -6.7390   -3.7720 hc        1 MOL     -0.021849
     30 H11         2.2180   -3.7070   -3.1180 hc        1 MOL      0.030306
     31 H12         0.6600   -4.5530   -3.4480 hc        1 MOL      0.030306
     32 H13         4.2330   -6.7960   -2.4840 hc        1 MOL      0.028357
     33 H14         4.3140   -5.7900   -3.8830 hc        1 MOL      0.028357
     34 H15         4.0470   -4.9720   -2.2820 hc        1 MOL      0.028357
     35 H16         2.8610   -4.1710   -5.2490 hc        1 MOL      0.107879
     36 H17         1.5140   -5.4860   -5.5100 hc        1 MOL      0.107879
     37 H18         1.1470   -3.8030   -5.4770 hc        1 MOL      0.107879
     38 N3         -0.5340   -6.1360   -1.0890 n         1 MOL     -0.301035
     39 C13        -1.9950   -6.2020   -1.1180 c3        1 MOL      0.070965
     40 C14        -2.6860   -5.6770    0.1640 c         1 MOL      0.560332
     41 O6         -2.0360   -5.2010    1.0440 o         1 MOL     -0.551630
     42 C15        -2.4870   -5.3270   -2.3760 c3        1 MOL     -0.286715
     43 C16        -3.8740   -5.6500   -2.8250 c         1 MOL      0.819497
     44 O7         -4.4170   -4.8280   -3.6030 o         1 MOL     -0.752683
     45 O8         -4.4300   -6.6460   -2.3960 o         1 MOL     -0.752683
     46 H19        -0.0770   -5.4290   -0.5280 hn        1 MOL      0.183150
     47 H20        -2.2630   -7.2520   -1.2190 h1        1 MOL      0.029324
     48 H21        -1.8550   -5.6270   -3.2070 hc        1 MOL      0.063235
     49 H22        -2.4330   -4.2510   -2.2150 hc        1 MOL      0.063235
     50 N4         -4.0090   -5.7610    0.2250 n         1 MOL     -0.493046
     51 C17        -4.8880   -5.1210    1.2170 c3        1 MOL     -0.014155
     52 C18        -5.0780   -3.6150    1.1090 c         1 MOL      0.835619
     53 O9         -4.2370   -2.8890    0.5490 o         1 MOL     -0.684086
     54 H23        -4.4570   -6.1190   -0.6050 hn        1 MOL      0.320177
     55 H24        -4.6280   -5.2530    2.2660 h1        1 MOL      0.038278
     56 H25        -5.9120   -5.4500    1.0470 h1        1 MOL      0.038278
     57 N5         -6.1980   -3.0590    1.4910 n         1 MOL     -0.641996
     58 C19        -6.6010   -1.6290    1.2730 c3        1 MOL      0.376563
     59 C20        -7.0980   -1.4700   -0.2060 c         1 MOL      0.442331
     60 O10        -7.7270   -2.3670   -0.7870 o         1 MOL     -0.536185
     61 C21        -7.6340   -1.1450    2.3450 c3        1 MOL     -0.438166
     62 C22        -7.1020   -1.3230    3.8040 c         1 MOL      0.760146
     63 O11        -6.6570   -0.3250    4.3850 o         1 MOL     -0.736527
     64 O12        -7.0410   -2.4630    4.3020 o         1 MOL     -0.736527
     65 H26        -6.9010   -3.6780    1.8810 hn        1 MOL      0.280948
     66 H27        -5.7220   -0.9820    1.3630 h1        1 MOL      0.021639
     67 H28        -8.5510   -1.7370    2.3450 hc        1 MOL      0.076050
     68 H29        -7.8140   -0.0990    2.0870 hc        1 MOL      0.076050
     69 N6         -6.8780   -0.3580   -0.9350 n         1 MOL     -0.426274
     70 C23        -6.3500    0.9600   -0.5230 c3        1 MOL      0.046153
     71 C24        -6.8120    2.1370   -1.4610 c         1 MOL      0.568672
     72 O13        -7.3600    1.8680   -2.5410 o         1 MOL     -0.561390
     73 H30        -7.3140   -0.3810   -1.8440 hn        1 MOL      0.279467
     74 H31        -5.2700    0.8700   -0.6040 h1        1 MOL      0.074927
     75 H32        -6.7280    1.0980    0.4870 h1        1 MOL      0.074927
     76 N7         -6.6270    3.3700   -1.1300 n         1 MOL     -0.402036
     77 C25        -6.1720    4.0090    0.0910 c3        1 MOL      0.117887
     78 C26        -4.8640    3.4400    0.6690 c         1 MOL      0.389162
     79 O14        -4.7890    2.9070    1.8180 o         1 MOL     -0.506316
     80 C27        -7.3030    3.8970    1.1120 c3        1 MOL     -0.032457
     81 C28        -8.4980    4.7350    0.8540 c3        1 MOL     -0.378040
     82 C29        -8.2900    6.2400    0.6860 c         1 MOL      0.628949
     83 N8         -7.9600    7.0050    1.6970 n         1 MOL     -0.785262
     84 O15        -8.2170    6.7930   -0.4130 o         1 MOL     -0.559303
     85 H33        -6.9500    4.0720   -1.7880 hn        1 MOL      0.255043
     86 H34        -6.0830    5.0890   -0.0680 h1        1 MOL      0.101095
     87 H35        -6.9380    4.2900    2.0620 hc        1 MOL      0.032270
     88 H36        -7.6590    2.8730    1.0610 hc        1 MOL      0.032270
     89 H37        -9.2090    4.6210    1.6750 hc        1 MOL      0.120398
     90 H38        -8.8990    4.3390   -0.0760 hc        1 MOL      0.120398
     91 H39        -7.9120    6.4870    2.5660 hn        1 MOL      0.374895
     92 H40        -7.6300    7.9410    1.5680 hn        1 MOL      0.374895
     93 N9         -3.9340    3.3080   -0.2320 n         1 MOL     -0.427484
     94 C30        -2.6860    2.4640   -0.0050 c3        1 MOL      0.000874
     95 C31        -2.3050    1.6640   -1.2960 c         1 MOL      0.539217
     96 O16        -2.7810    2.0060   -2.3850 o         1 MOL     -0.516252
     97 C32        -1.3930    3.2830    0.4750 c3        1 MOL      0.095287
     98 C33        -1.6330    4.0060    1.7570 c3        1 MOL     -0.147749
     99 C34        -0.9660    4.2940   -0.6340 c3        1 MOL     -0.147749
    100 H41        -4.0990    3.5930   -1.1820 hn        1 MOL      0.246545
    101 H42        -2.9100    1.7200    0.7550 h1        1 MOL      0.109317
    102 H43        -0.5770    2.5860    0.6240 hc        1 MOL      0.041087
    103 H44        -2.4060    4.7610    1.6190 hc        1 MOL      0.040334
    104 H45        -1.8830    3.2760    2.5360 hc        1 MOL      0.040334
    105 H46        -0.7480    4.4340    2.2260 hc        1 MOL      0.040334
    106 H47        -0.3630    5.1030   -0.2230 hc        1 MOL      0.040334
    107 H48        -0.4840    3.6990   -1.4150 hc        1 MOL      0.040334
    108 H49        -1.8490    4.7660   -1.0620 hc        1 MOL      0.040334
    109 N10        -1.4590    0.5850   -1.1780 n         1 MOL     -0.489809
    110 C35        -0.9220   -0.2210   -2.2700 c3        1 MOL      0.181178
    111 C36         0.4520    0.2920   -2.8210 c         1 MOL      0.374194
    112 O17         1.1140   -0.4340   -3.5320 o         1 MOL     -0.496706
    113 C37        -0.7750   -1.6820   -1.8520 c3        1 MOL     -0.368708
    114 C38         0.2830   -1.8970   -0.7640 c         1 MOL      0.496662
    115 N11        -0.0360   -1.4840    0.4270 n         1 MOL     -0.545109
    116 O18         1.3450   -2.4560   -0.9950 o         1 MOL     -0.443394
    117 H50        -1.1330    0.3030   -0.2690 hn        1 MOL      0.226891
    118 H51        -1.6600   -0.1920   -3.0690 h1        1 MOL      0.101768
    119 H52        -0.3820   -2.1700   -2.7430 hc        1 MOL      0.153538
    120 H53        -1.7510   -2.0480   -1.5320 hc        1 MOL      0.153538
    121 H54        -0.9910   -1.1670    0.5790 hn        1 MOL      0.301480
    122 H55         0.6940   -1.6110    1.1060 hn        1 MOL      0.301480
    123 N12         0.8870    1.4790   -2.3990 n         1 MOL     -0.085701
    124 C39         2.2570    2.1080   -2.6700 c3        1 MOL     -0.068522
    125 C40         2.8670    2.8220   -1.4790 c         1 MOL      0.782157
    126 O19         2.1270    3.1130   -0.5380 o         1 MOL     -0.612367
    127 C41         2.1430    3.0500   -3.8980 c3        1 MOL      0.054013
    128 C42         1.3150    4.2440   -3.7260 ca        1 MOL     -0.002552
    129 C43         1.9810    5.3960   -3.3550 ca        1 MOL     -0.041357
    130 C44        -0.0630    4.2470   -4.0340 ca        1 MOL     -0.041357
    131 C45         1.1980    6.5880   -3.1920 ca        1 MOL     -0.367717
    132 C46        -0.8640    5.4490   -3.8720 ca        1 MOL     -0.367717
    133 C47        -0.2100    6.6410   -3.4110 ca        1 MOL      0.339743
    134 O20        -0.7970    7.8170   -3.1090 oh        1 MOL     -0.458766
    135 H56         0.2730    1.9170   -1.7380 hn        1 MOL      0.016085
    136 H57         2.9890    1.3430   -2.9510 h1        1 MOL      0.086524
    137 H58         1.7560    2.4070   -4.6890 hc        1 MOL     -0.020324
    138 H59         3.1270    3.3890   -4.2090 hc        1 MOL     -0.020324
    139 H60         3.0530    5.4580   -3.1660 ha        1 MOL      0.105353
    140 H61        -0.5490    3.3610   -4.4050 ha        1 MOL      0.105353
    141 H62         1.6870    7.4600   -2.8010 ha        1 MOL      0.186938
    142 H63        -1.9310    5.3950   -4.0110 ha        1 MOL      0.186938
    143 H64        -1.6880    7.8150   -3.4780 ho        1 MOL      0.344490
    144 N13         4.1850    3.0240   -1.4800 n         1 MOL     -0.593464
    145 C48         4.9540    3.5710   -0.4000 c3        1 MOL      0.065745
    146 C49         6.1800    2.7050   -0.0920 c         1 MOL      0.497885
    147 O21         7.2390    2.9130   -0.5830 o         1 MOL     -0.510601
    148 C50         5.3660    5.0100   -0.7380 c3        1 MOL     -0.103356
    149 C51         6.0390    5.7350    0.4220 c3        1 MOL     -0.256087
    150 C52         6.3380    7.1570   -0.0360 c         1 MOL      0.720508
    151 O22         5.3560    7.8430   -0.3940 o         1 MOL     -0.741583
    152 O23         7.5280    7.6450    0.0030 o         1 MOL     -0.741583
    153 H65         4.6860    3.0240   -2.3610 hn        1 MOL      0.310148
    154 H66         4.3720    3.5240    0.5200 h1        1 MOL      0.027884
    155 H67         4.4590    5.5410   -1.0070 hc        1 MOL      0.081112
    156 H68         6.0830    5.0520   -1.5590 hc        1 MOL      0.081112
    157 H69         6.9240    5.2270    0.8200 hc        1 MOL      0.037266
    158 H70         5.3460    5.7380    1.2630 hc        1 MOL      0.037266
    159 N14         6.0350    1.5640    0.5660 n         1 MOL     -0.260897
    160 C53         7.0280    0.4840    0.6530 c3        1 MOL     -0.237021
    161 C54         7.1100   -0.1750   -0.7080 c         1 MOL      0.497605
    162 O24         8.2130   -0.4480   -1.1290 o         1 MOL     -0.551858
    163 C55         6.7690   -0.4920    1.7920 c3        1 MOL      0.212559
    164 C56         6.7010    0.1710    3.1730 c3        1 MOL     -0.212723
    165 C57         5.2540    0.3580    3.6450 c         1 MOL      0.652541
    166 O25         4.7650   -0.4120    4.4940 o         1 MOL     -0.762867
    167 O26         4.5070    1.0990    2.9270 o         1 MOL     -0.762867
    168 H71         5.1760    1.4300    1.0770 hn        1 MOL      0.254843
    169 H72         8.0030    0.9310    0.8530 h1        1 MOL      0.119592
    170 H73         7.5790   -1.2210    1.8110 hc        1 MOL      0.020217
    171 H74         5.8190   -0.9980    1.6420 hc        1 MOL      0.020217
    172 H75         7.2160    1.1310    3.1540 hc        1 MOL      0.033808
    173 H76         7.1780   -0.5020    3.8920 hc        1 MOL      0.033808
    174 N15         5.9710   -0.3150   -1.4870 n         1 MOL     -0.084455
    175 C58         5.9990   -0.6130   -2.9670 c3        1 MOL     -0.154359
    176 H77         5.1390   -1.2310   -3.2280 h1        1 MOL      0.069682
    177 H78         5.9590    0.3200   -3.5280 h1        1 MOL      0.069682
    178 H79         6.9170   -1.1470   -3.2140 h1        1 MOL      0.069682
    179 H80         5.1020   -0.0100   -1.0650 hn        1 MOL      0.117125
    180 Ca1         2.2940    0.2810    4.0880 Ca        1 MOL      1.826367
    181 O27         3.2640    2.5070    5.3800 oh        1 MOL     -0.866433
    182 H81         4.1430    2.8010    5.1100 ho        1 MOL      0.426987
    183 H82         3.0070    3.1380    6.0510 ho        1 MOL      0.426987
    184 O28         1.8040    2.3060    2.2710 oh        1 MOL     -0.866433
    185 H83         1.5660    3.1200    2.7020 ho        1 MOL      0.426987
    186 H84         2.0090    2.5590    1.3710 ho        1 MOL      0.426987
    187 O29         1.8630   -0.7630    6.4170 oh        1 MOL     -0.866433
    188 H85         2.3870   -0.4120    7.1370 ho        1 MOL      0.426987
    189 H86         1.5940   -1.6300    6.7060 ho        1 MOL      0.426987
    190 O30         0.2210    2.0310    4.8620 oh        1 MOL     -0.866433
    191 H87         0.2710    2.8920    5.2730 ho        1 MOL      0.426987
    192 H88        -0.7120    1.8690    4.7330 ho        1 MOL      0.426987
    193 O31        -0.0680   -0.8650    3.3980 oh        1 MOL     -0.866433
    194 H89        -0.8780   -0.6150    2.9490 ho        1 MOL      0.426987
    195 H90        -0.3390   -1.5500    4.0070 ho        1 MOL      0.426987
@<TRIPOS>BOND
     1    1    2 1   
     2    1    4 1   
     3    1    5 1   
     4    1    6 1   
     5    2    3 2   
     6    2    7 1   
     7    7    8 1   
     8    7   15 1   
     9    8    9 1   
    10    8   11 1   
    11    8   16 1   
    12    9   10 2   
    13    9   19 1   
    14   11   12 1   
    15   11   17 1   
    16   11   18 1   
    17   12   13 1   
    18   12   14 1   
    19   19   20 1   
    20   19   27 1   
    21   20   21 1   
    22   20   23 1   
    23   20   28 1   
    24   21   22 2   
    25   21   38 1   
    26   23   24 1   
    27   23   25 1   
    28   23   29 1   
    29   24   26 1   
    30   24   30 1   
    31   24   31 1   
    32   25   32 1   
    33   25   33 1   
    34   25   34 1   
    35   26   35 1   
    36   26   36 1   
    37   26   37 1   
    38   38   39 1   
    39   38   46 1   
    40   39   40 1   
    41   39   42 1   
    42   39   47 1   
    43   40   41 2   
    44   40   50 1   
    45   42   43 1   
    46   42   48 1   
    47   42   49 1   
    48   43   44 1   
    49   43   45 1   
    50   50   51 1   
    51   50   54 1   
    52   51   52 1   
    53   51   55 1   
    54   51   56 1   
    55   52   53 2   
    56   52   57 1   
    57   57   58 1   
    58   57   65 1   
    59   58   59 1   
    60   58   61 1   
    61   58   66 1   
    62   59   60 2   
    63   59   69 1   
    64   61   62 1   
    65   61   67 1   
    66   61   68 1   
    67   62   63 1   
    68   62   64 1   
    69   69   70 1   
    70   69   73 1   
    71   70   71 1   
    72   70   74 1   
    73   70   75 1   
    74   71   72 2   
    75   71   76 1   
    76   76   77 1   
    77   76   85 1   
    78   77   78 1   
    79   77   80 1   
    80   77   86 1   
    81   78   79 2   
    82   78   93 1   
    83   80   81 1   
    84   80   87 1   
    85   80   88 1   
    86   81   82 1   
    87   81   89 1   
    88   81   90 1   
    89   82   83 1   
    90   82   84 2   
    91   83   91 1   
    92   83   92 1   
    93   93   94 1   
    94   93  100 1   
    95   94   95 1   
    96   94   97 1   
    97   94  101 1   
    98   95   96 2   
    99   95  109 1   
   100   97   98 1   
   101   97   99 1   
   102   97  102 1   
   103   98  103 1   
   104   98  104 1   
   105   98  105 1   
   106   99  106 1   
   107   99  107 1   
   108   99  108 1   
   109  109  110 1   
   110  109  117 1   
   111  110  111 1   
   112  110  113 1   
   113  110  118 1   
   114  111  112 2   
   115  111  123 1   
   116  113  114 1   
   117  113  119 1   
   118  113  120 1   
   119  114  115 1   
   120  114  116 2   
   121  115  121 1   
   122  115  122 1   
   123  123  124 1   
   124  123  135 1   
   125  124  125 1   
   126  124  127 1   
   127  124  136 1   
   128  125  126 2   
   129  125  144 1   
   130  127  128 1   
   131  127  137 1   
   132  127  138 1   
   133  128  129 ar  
   134  128  130 ar  
   135  129  131 ar  
   136  129  139 1   
   137  130  132 ar  
   138  130  140 1   
   139  131  133 ar  
   140  131  141 1   
   141  132  133 ar  
   142  132  142 1   
   143  133  134 1   
   144  134  143 1   
   145  144  145 1   
   146  144  153 1   
   147  145  146 1   
   148  145  148 1   
   149  145  154 1   
   150  146  147 2   
   151  146  159 1   
   152  148  149 1   
   153  148  155 1   
   154  148  156 1   
   155  149  150 1   
   156  149  157 1   
   157  149  158 1   
   158  150  151 1   
   159  150  152 1   
   160  159  160 1   
   161  159  168 1   
   162  160  161 1   
   163  160  163 1   
   164  160  169 1   
   165  161  162 2   
   166  161  174 1   
   167  163  164 1   
   168  163  170 1   
   169  163  171 1   
   170  164  165 1   
   171  164  172 1   
   172  164  173 1   
   173  165  166 1   
   174  165  167 1   
   175  174  175 1   
   176  174  179 1   
   177  175  176 1   
   178  175  177 1   
   179  175  178 1   
   180  181  182 1   
   181  181  183 1   
   182  184  185 1   
   183  184  186 1   
   184  187  188 1   
   185  187  189 1   
   186  190  191 1   
   187  190  192 1   
   188  193  194 1   
   189  193  195 1   
@<TRIPOS>SUBSTRUCTURE
     1 MOL         1 TEMP              0 ****  ****    0 ROOT
