@<TRIPOS>MOLECULE
MOL
  198   191     1     0     0
SMALL
resp


@<TRIPOS>ATOM
      1 C1         -6.0250   -4.2670    4.5860 c3        1 MOL     -0.173313
      2 C2         -5.4520   -3.5320    3.4040 c         1 MOL      0.777223
      3 O1         -4.8040   -4.1310    2.5620 o         1 MOL     -0.631340
      4 H1         -5.7900   -3.7230    5.5010 hc        1 MOL      0.037705
      5 H2         -7.1080   -4.3420    4.4770 hc        1 MOL      0.037705
      6 H3         -5.5940   -5.2670    4.6370 hc        1 MOL      0.037705
      7 N1         -5.7950   -2.2390    3.2640 n         1 MOL     -0.589391
      8 C3         -5.3400   -1.2890    2.2110 c3        1 MOL      0.465674
      9 C4         -3.8200   -1.0850    2.0110 c         1 MOL     -0.028328
     10 O2         -3.4500   -0.2810    1.2060 o         1 MOL     -0.372413
     11 C5         -5.8970    0.0880    2.4720 c3        1 MOL     -0.296921
     12 C6         -7.3770    0.0370    2.9340 c         1 MOL      0.732874
     13 O3         -8.2480    0.4300    2.1650 o         1 MOL     -0.702366
     14 O4         -7.6320   -0.3330    4.1030 o         1 MOL     -0.702366
     15 H4         -6.2310   -1.7900    4.0520 hn        1 MOL      0.247392
     16 H5         -5.8040   -1.6070    1.2730 h1        1 MOL      0.015697
     17 H6         -5.7950    0.6480    1.5360 hc        1 MOL      0.026748
     18 H7         -5.3670    0.6440    3.2460 hc        1 MOL      0.026748
     19 N2         -3.0020   -1.7230    2.8180 n         1 MOL     -0.029034
     20 C7         -1.5690   -1.3220    2.9300 c3        1 MOL      0.164555
     21 C8         -0.5940   -2.4640    2.4850 c         1 MOL      0.481390
     22 O5         -0.7870   -3.6080    2.8420 o         1 MOL     -0.527890
     23 C9         -1.3310   -1.0250    4.4720 c3        1 MOL     -0.164305
     24 C10        -2.1940    0.0390    5.2280 c3        1 MOL     -0.033927
     25 C11        -2.2500    1.4220    4.5810 c3        1 MOL      0.032671
     26 C12        -0.9390    2.1800    4.9830 c3        1 MOL      0.088900
     27 N3         -1.0860    3.6580    4.7160 n4        1 MOL     -0.420378
     28 H8         -3.4110   -2.4590    3.3580 hn        1 MOL      0.139209
     29 H9         -1.4030   -0.4670    2.2750 h1        1 MOL      0.068425
     30 H10        -0.2700   -0.7940    4.5230 hc        1 MOL      0.053043
     31 H11        -1.5340   -2.0100    4.8940 hc        1 MOL      0.053043
     32 H12        -1.7620    0.1330    6.2240 hc        1 MOL      0.028909
     33 H13        -3.2310   -0.2680    5.3820 hc        1 MOL      0.028909
     34 H14        -3.1100    1.9990    4.9270 hc        1 MOL      0.009057
     35 H15        -2.3690    1.2320    3.5240 hc        1 MOL      0.009057
     36 H16        -0.1510    1.7360    4.3800 hx        1 MOL      0.051527
     37 H17        -0.8570    1.8440    6.0120 hx        1 MOL      0.051527
     38 H18        -1.3610    3.6990    3.7460 hn        1 MOL      0.338419
     39 H19        -1.8920    3.9810    5.2290 hn        1 MOL      0.338419
     40 H20        -0.2790    4.2630    4.8160 hn        1 MOL      0.338419
     41 N4          0.4570   -2.2180    1.7070 n         1 MOL     -0.345739
     42 C13         1.1350   -1.0380    1.2000 c3        1 MOL     -0.050161
     43 C14         1.4980   -0.0320    2.2620 c         1 MOL      0.450948
     44 O6          0.7470    0.9100    2.5110 o         1 MOL     -0.507353
     45 C15         0.4550   -0.3770    0.0130 c3        1 MOL     -0.243300
     46 C16         0.6020   -1.2410   -1.2200 c         1 MOL      0.634889
     47 O7          1.0320   -2.4510   -1.1810 o         1 MOL     -0.716156
     48 O8          0.3870   -0.7190   -2.3540 o         1 MOL     -0.716156
     49 H21         0.9510   -3.0270    1.3580 hn        1 MOL      0.198487
     50 H22         2.1020   -1.4260    0.8760 h1        1 MOL      0.023721
     51 H23         1.0150    0.5520   -0.1420 hc        1 MOL      0.131074
     52 H24        -0.6210   -0.2340    0.1150 hc        1 MOL      0.131074
     53 N5          2.6410   -0.1860    2.9640 n         1 MOL     -0.396884
     54 C17         3.7600   -1.1160    2.7290 c3        1 MOL     -0.021383
     55 C18         4.9420   -1.0810    3.7350 c         1 MOL      0.546814
     56 O9          4.7100   -0.4950    4.8140 o         1 MOL     -0.559022
     57 H25         2.8050    0.5570    3.6250 hn        1 MOL      0.290309
     58 H26         4.1530   -0.7970    1.7690 h1        1 MOL      0.108707
     59 H27         3.3440   -2.1200    2.6760 h1        1 MOL      0.108707
     60 N6          6.1230   -1.5830    3.4060 n         1 MOL     -0.527295
     61 C19         6.3730   -2.2460    2.0520 c3        1 MOL      0.141469
     62 C20         6.7410   -1.1740    1.0460 c         1 MOL      0.551974
     63 O10         7.0000    0.0060    1.3020 o         1 MOL     -0.490242
     64 C21         7.2960   -3.4980    2.1340 c3        1 MOL     -0.157487
     65 C22         8.6150   -3.2500    2.8930 c         1 MOL      0.730034
     66 O11         9.6560   -3.5900    2.3450 o         1 MOL     -0.684043
     67 O12         8.5940   -2.7100    4.0170 o         1 MOL     -0.684043
     68 H28         6.9000   -1.5620    4.0520 hn        1 MOL      0.344029
     69 H29         5.4520   -2.6790    1.6660 h1        1 MOL     -0.056336
     70 H30         7.5540   -3.8240    1.1250 hc        1 MOL      0.009228
     71 H31         6.8340   -4.3220    2.6730 hc        1 MOL      0.009228
     72 N7          6.9230   -1.6420   -0.1560 n         1 MOL     -0.370550
     73 C23         7.5620   -0.9180   -1.3100 c3        1 MOL     -0.241134
     74 C24         6.8030    0.2580   -1.9140 c         1 MOL      0.511589
     75 O13         7.3680    1.1000   -2.5770 o         1 MOL     -0.525018
     76 H32         6.7620   -2.6360   -0.2550 hn        1 MOL      0.269540
     77 H33         7.9400   -1.6120   -2.0690 h1        1 MOL      0.146993
     78 H34         8.4810   -0.5470   -0.8610 h1        1 MOL      0.146993
     79 N8          5.4620    0.1790   -1.7610 n         1 MOL     -0.366272
     80 C25         4.4670    1.1700   -2.2550 c3        1 MOL      0.052054
     81 C26         4.1290    2.1410   -1.1370 c         1 MOL      0.507110
     82 O14         3.7210    1.6910   -0.1020 o         1 MOL     -0.484593
     83 C27         3.2070    0.5070   -2.9190 c3        1 MOL      0.388554
     84 C28         3.6870   -0.5620   -3.8040 c3        1 MOL      0.062032
     85 O15         2.4370    1.4200   -3.7650 oh        1 MOL     -0.690216
     86 H35         5.1330   -0.6150   -1.2500 hn        1 MOL      0.160365
     87 H36         5.0100    1.6300   -3.0760 h1        1 MOL      0.074097
     88 H37         2.5530    0.0850   -2.1640 h1        1 MOL      0.006077
     89 H38         1.5180    1.1680   -3.6790 ho        1 MOL      0.449394
     90 H39         4.1950   -1.3700   -3.2710 hc        1 MOL     -0.034660
     91 H40         2.8330   -0.9960   -4.3180 hc        1 MOL     -0.034660
     92 H41         4.3210   -0.1100   -4.5650 hc        1 MOL     -0.034660
     93 N9          4.2930    3.4250   -1.3660 n         1 MOL     -0.328906
     94 C29         4.3660    4.4220   -0.2640 c3        1 MOL     -0.390831
     95 C30         3.1300    5.2350    0.0340 c         1 MOL      0.608492
     96 O16         3.0470    6.0150    0.9520 o         1 MOL     -0.537664
     97 C31         5.6570    5.2720   -0.4000 c3        1 MOL      0.164336
     98 C32         5.5480    6.1560   -1.6610 c3        1 MOL      0.306944
     99 C33         6.9680    4.4310   -0.3330 c3        1 MOL     -0.095394
    100 C34         6.4600    7.3590   -1.5710 c3        1 MOL     -0.336083
    101 H42         4.4700    3.6230   -2.3400 hn        1 MOL      0.246312
    102 H43         4.5700    3.8290    0.6300 h1        1 MOL      0.197937
    103 H44         5.6450    5.9950    0.4160 hc        1 MOL      0.002270
    104 H45         4.5620    6.6200   -1.6870 hc        1 MOL     -0.058387
    105 H46         5.6570    5.6240   -2.6060 hc        1 MOL     -0.058387
    106 H47         7.1740    3.8870   -1.2530 hc        1 MOL      0.031051
    107 H48         7.8540    5.0360   -0.1250 hc        1 MOL      0.031051
    108 H49         6.8490    3.7370    0.4930 hc        1 MOL      0.031051
    109 H50         6.7850    7.5930   -2.5910 hc        1 MOL      0.065977
    110 H51         5.9310    8.1530   -1.0410 hc        1 MOL      0.065977
    111 H52         7.3540    7.0700   -1.0090 hc        1 MOL      0.065977
    112 N10         2.0470    4.9540   -0.7260 n         1 MOL     -0.289559
    113 C35         0.6510    5.2630   -0.3380 c3        1 MOL      0.070638
    114 C36        -0.2560    4.0110   -0.1730 c         1 MOL      0.459432
    115 O17         0.0750    2.9370   -0.7630 o         1 MOL     -0.483913
    116 C37        -0.0110    6.2020   -1.3210 c3        1 MOL      0.234716
    117 C38         0.1340    5.7210   -2.7900 c3        1 MOL     -0.345161
    118 O18         0.6380    7.4420   -1.2190 oh        1 MOL     -0.605255
    119 H53         2.2310    4.2840   -1.4580 hn        1 MOL      0.170932
    120 H54         0.6400    5.7340    0.6470 h1        1 MOL      0.059902
    121 H55        -1.0540    6.3370   -1.0360 h1        1 MOL      0.013742
    122 H56         0.3450    7.9670   -1.9690 ho        1 MOL      0.391231
    123 H57        -0.4400    6.3500   -3.4840 hc        1 MOL      0.099201
    124 H58         1.1610    5.5830   -3.1120 hc        1 MOL      0.099201
    125 H59        -0.3500    4.7570   -2.9610 hc        1 MOL      0.099201
    126 N11        -1.3220    4.1200    0.6840 n         1 MOL     -0.469444
    127 C39        -2.4520    3.1590    0.6620 c3        1 MOL     -0.000511
    128 C40        -2.9100    2.8200   -0.7460 c         1 MOL      0.667795
    129 O19        -2.7730    3.5940   -1.6540 o         1 MOL     -0.597216
    130 C41        -3.6940    3.6770    1.4100 c3        1 MOL      0.343695
    131 C42        -4.4070    4.8250    0.7670 c3        1 MOL     -0.191724
    132 O20        -3.2510    4.2270    2.6500 oh        1 MOL     -0.761379
    133 H60        -1.3380    4.9780    1.2250 hn        1 MOL      0.302784
    134 H61        -2.1970    2.1920    1.1030 h1        1 MOL      0.047851
    135 H62        -4.4570    2.9130    1.5050 h1        1 MOL      0.036218
    136 H63        -3.9110    4.7390    3.1240 ho        1 MOL      0.440975
    137 H64        -4.7520    4.4940   -0.2200 hc        1 MOL      0.045030
    138 H65        -5.2740    5.1230    1.3750 hc        1 MOL      0.045030
    139 H66        -3.7450    5.6910    0.7170 hc        1 MOL      0.045030
    140 N12        -3.6480    1.7670   -0.9280 n         1 MOL     -0.391502
    141 C43        -4.1670    1.3130   -2.2430 c3        1 MOL     -0.048836
    142 C44        -3.9180   -0.2050   -2.6290 c         1 MOL      0.536753
    143 O21        -3.8040   -0.4300   -3.8490 o         1 MOL     -0.588010
    144 C45        -5.6950    1.6310   -2.3790 c3        1 MOL     -0.178980
    145 C46        -6.0620    3.1210   -2.5740 c3        1 MOL      0.156889
    146 C47        -7.5760    3.3230   -2.6710 c3        1 MOL     -0.193349
    147 C48        -7.7470    4.9060   -2.6860 c3        1 MOL      0.158655
    148 N13        -9.1990    5.3180   -2.7670 n4        1 MOL     -0.332480
    149 H67        -3.8500    1.1170   -0.1800 hn        1 MOL      0.232924
    150 H68        -3.6480    1.8700   -3.0200 h1        1 MOL      0.128795
    151 H69        -6.2040    1.1960   -1.5090 hc        1 MOL      0.065768
    152 H70        -6.0270    1.0630   -3.2480 hc        1 MOL      0.065768
    153 H71        -5.5500    3.4720   -3.4680 hc        1 MOL      0.001106
    154 H72        -5.8100    3.8070   -1.7690 hc        1 MOL      0.001106
    155 H73        -8.0890    2.9190   -1.7920 hc        1 MOL      0.084718
    156 H74        -7.9290    2.8990   -3.6010 hc        1 MOL      0.084718
    157 H75        -7.2420    5.4180   -3.5080 hx        1 MOL      0.045181
    158 H76        -7.3470    5.3640   -1.7810 hx        1 MOL      0.045181
    159 H77        -9.7560    4.9620   -2.0060 hn        1 MOL      0.298537
    160 H78        -9.3310    6.3240   -2.7720 hn        1 MOL      0.298537
    161 H79        -9.6560    5.0610   -3.6260 hn        1 MOL      0.298537
    162 N14        -3.8340   -1.1100   -1.7050 n         1 MOL     -0.030797
    163 C49        -3.7540   -2.5100   -1.9540 c3        1 MOL     -0.174458
    164 C50        -5.1590   -3.2000   -1.9500 c         1 MOL      0.384625
    165 O22        -6.0230   -2.9700   -1.0840 o         1 MOL     -0.470932
    166 C51        -2.8660   -3.1400   -0.9040 c3        1 MOL      0.561677
    167 C52        -2.4720   -4.5830   -1.0440 c3        1 MOL     -0.974770
    168 C53        -2.1660   -5.1090   -2.4800 c         1 MOL      0.871558
    169 O23        -3.1120   -5.4600   -3.2590 o         1 MOL     -0.751763
    170 O24        -0.9860   -5.2000   -2.9170 o         1 MOL     -0.751763
    171 H80        -3.9210   -0.7710   -0.7610 hn        1 MOL      0.073087
    172 H81        -3.3800   -2.6610   -2.9660 h1        1 MOL      0.076234
    173 H82        -3.3150   -3.0990    0.0860 hc        1 MOL     -0.088131
    174 H83        -1.9730   -2.5310   -0.7320 hc        1 MOL     -0.088131
    175 H84        -3.3600   -5.1300   -0.7320 hc        1 MOL      0.259897
    176 H85        -1.7420   -4.8480   -0.2820 hc        1 MOL      0.259897
    177 N15        -5.4960   -3.9910   -2.9800 n         1 MOL     -0.355365
    178 C54        -6.7230   -4.6760   -3.0980 c3        1 MOL     -0.071411
    179 H86        -6.7470   -5.2190   -4.0420 h1        1 MOL      0.061522
    180 H87        -6.8280   -5.3800   -2.2720 h1        1 MOL      0.061522
    181 H88        -7.5440   -3.9600   -3.0700 h1        1 MOL      0.061522
    182 H89        -4.7950   -4.3910   -3.5930 hn        1 MOL      0.371456
    183 Ca1         1.4130   -4.7440   -2.1240 Ca        1 MOL      1.751130
    184 O25         1.9830   -6.2560   -4.3590 oh        1 MOL     -0.817266
    185 H90         2.4460   -7.0670   -4.1900 ho        1 MOL      0.408244
    186 H91         1.4330   -6.4450   -5.1190 ho        1 MOL      0.408244
    187 O26         3.8890   -3.7550   -3.2600 oh        1 MOL     -0.817266
    188 H92         4.1390   -3.9370   -4.1710 ho        1 MOL      0.408244
    189 H93         4.7190   -3.7990   -2.7830 ho        1 MOL      0.408244
    190 O27         0.3790   -7.3140   -1.4260 oh        1 MOL     -0.817266
    191 H94        -0.4360   -7.5200   -1.8820 ho        1 MOL      0.408244
    192 H95         0.8770   -8.1230   -1.4580 ho        1 MOL      0.408244
    193 O28         3.1480   -6.8300   -1.6610 oh        1 MOL     -0.817266
    194 H96         2.9150   -7.7530   -1.7150 ho        1 MOL      0.408244
    195 H97         4.0530   -6.8300   -1.3530 ho        1 MOL      0.408244
    196 O29         0.7080   -2.9390   -4.0010 oh        1 MOL     -0.817266
    197 H98         0.7390   -2.0620   -3.6140 ho        1 MOL      0.408244
    198 H99        -0.0950   -2.9400   -4.5060 ho        1 MOL      0.408244
@<TRIPOS>BOND
     1    1    2 1   
     2    1    4 1   
     3    1    5 1   
     4    1    6 1   
     5    2    3 2   
     6    2    7 1   
     7    7    8 1   
     8    7   15 1   
     9    8    9 1   
    10    8   11 1   
    11    8   16 1   
    12    9   10 2   
    13    9   19 1   
    14   11   12 1   
    15   11   17 1   
    16   11   18 1   
    17   12   13 1   
    18   12   14 1   
    19   19   20 1   
    20   19   28 1   
    21   20   21 1   
    22   20   23 1   
    23   20   29 1   
    24   21   22 2   
    25   21   41 1   
    26   23   24 1   
    27   23   30 1   
    28   23   31 1   
    29   24   25 1   
    30   24   32 1   
    31   24   33 1   
    32   25   26 1   
    33   25   34 1   
    34   25   35 1   
    35   26   27 1   
    36   26   36 1   
    37   26   37 1   
    38   27   38 1   
    39   27   39 1   
    40   27   40 1   
    41   41   42 1   
    42   41   49 1   
    43   42   43 1   
    44   42   45 1   
    45   42   50 1   
    46   43   44 2   
    47   43   53 1   
    48   45   46 1   
    49   45   51 1   
    50   45   52 1   
    51   46   47 1   
    52   46   48 1   
    53   53   54 1   
    54   53   57 1   
    55   54   55 1   
    56   54   58 1   
    57   54   59 1   
    58   55   56 2   
    59   55   60 1   
    60   60   61 1   
    61   60   68 1   
    62   61   62 1   
    63   61   64 1   
    64   61   69 1   
    65   62   63 2   
    66   62   72 1   
    67   64   65 1   
    68   64   70 1   
    69   64   71 1   
    70   65   66 1   
    71   65   67 1   
    72   72   73 1   
    73   72   76 1   
    74   73   74 1   
    75   73   77 1   
    76   73   78 1   
    77   74   75 2   
    78   74   79 1   
    79   79   80 1   
    80   79   86 1   
    81   80   81 1   
    82   80   83 1   
    83   80   87 1   
    84   81   82 2   
    85   81   93 1   
    86   83   84 1   
    87   83   85 1   
    88   83   88 1   
    89   84   90 1   
    90   84   91 1   
    91   84   92 1   
    92   85   89 1   
    93   93   94 1   
    94   93  101 1   
    95   94   95 1   
    96   94   97 1   
    97   94  102 1   
    98   95   96 2   
    99   95  112 1   
   100   97   98 1   
   101   97   99 1   
   102   97  103 1   
   103   98  100 1   
   104   98  104 1   
   105   98  105 1   
   106   99  106 1   
   107   99  107 1   
   108   99  108 1   
   109  100  109 1   
   110  100  110 1   
   111  100  111 1   
   112  112  113 1   
   113  112  119 1   
   114  113  114 1   
   115  113  116 1   
   116  113  120 1   
   117  114  115 2   
   118  114  126 1   
   119  116  117 1   
   120  116  118 1   
   121  116  121 1   
   122  117  123 1   
   123  117  124 1   
   124  117  125 1   
   125  118  122 1   
   126  126  127 1   
   127  126  133 1   
   128  127  128 1   
   129  127  130 1   
   130  127  134 1   
   131  128  129 2   
   132  128  140 1   
   133  130  131 1   
   134  130  132 1   
   135  130  135 1   
   136  131  137 1   
   137  131  138 1   
   138  131  139 1   
   139  132  136 1   
   140  140  141 1   
   141  140  149 1   
   142  141  142 1   
   143  141  144 1   
   144  141  150 1   
   145  142  143 2   
   146  142  162 1   
   147  144  145 1   
   148  144  151 1   
   149  144  152 1   
   150  145  146 1   
   151  145  153 1   
   152  145  154 1   
   153  146  147 1   
   154  146  155 1   
   155  146  156 1   
   156  147  148 1   
   157  147  157 1   
   158  147  158 1   
   159  148  159 1   
   160  148  160 1   
   161  148  161 1   
   162  162  163 1   
   163  162  171 1   
   164  163  164 1   
   165  163  166 1   
   166  163  172 1   
   167  164  165 2   
   168  164  177 1   
   169  166  167 1   
   170  166  173 1   
   171  166  174 1   
   172  167  168 1   
   173  167  175 1   
   174  167  176 1   
   175  168  169 1   
   176  168  170 1   
   177  177  178 1   
   178  177  182 1   
   179  178  179 1   
   180  178  180 1   
   181  178  181 1   
   182  184  185 1   
   183  184  186 1   
   184  187  188 1   
   185  187  189 1   
   186  190  191 1   
   187  190  192 1   
   188  193  194 1   
   189  193  195 1   
   190  196  197 1   
   191  196  198 1   
@<TRIPOS>SUBSTRUCTURE
     1 MOL         1 TEMP              0 ****  ****    0 ROOT
