@<TRIPOS>MOLECULE
MOL
  186   183     1     0     0
SMALL
resp


@<TRIPOS>ATOM
      1 C1          4.5060    3.8410   -3.4770 c3        1 MOL     -0.356595
      2 C2          5.2060    3.2010   -2.2120 c         1 MOL      0.705743
      3 O1          4.5720    2.9280   -1.2260 o         1 MOL     -0.532313
      4 H1          5.0830    3.6020   -4.3710 hc        1 MOL      0.090125
      5 H2          3.4980    3.4390   -3.5780 hc        1 MOL      0.090125
      6 H3          4.4560    4.9220   -3.3580 hc        1 MOL      0.090125
      7 N1          6.5110    2.8760   -2.3330 n         1 MOL     -0.662739
      8 C3          7.2820    1.9280   -1.5030 c3        1 MOL      0.250721
      9 C4          6.4550    0.7270   -1.2780 c         1 MOL      0.393286
     10 O2          5.9410    0.5500   -0.1930 o         1 MOL     -0.497566
     11 C5          8.0160    2.5340   -0.2700 c3        1 MOL     -0.085619
     12 C6          7.2540    3.6080    0.4160 c         1 MOL      0.765346
     13 O3          6.2710    3.2890    1.0550 o         1 MOL     -0.745569
     14 O4          7.7400    4.7530    0.2980 o         1 MOL     -0.745569
     15 H4          6.9470    3.0850   -3.2250 hn        1 MOL      0.313663
     16 H5          8.0550    1.4830   -2.1360 h1        1 MOL     -0.011805
     17 H6          8.9810    2.9420   -0.5690 hc        1 MOL      0.002987
     18 H7          8.2040    1.7570    0.4670 hc        1 MOL      0.002987
     19 N2          6.1030    0.0980   -2.4040 n         1 MOL     -0.376260
     20 C7          5.3590   -1.1900   -2.5200 c3        1 MOL      0.041538
     21 C8          6.0880   -2.3310   -1.8670 c         1 MOL      0.261703
     22 O5          6.5160   -3.3010   -2.5800 o         1 MOL     -0.522513
     23 C9          3.8580   -1.0260   -2.1720 c3        1 MOL      0.063596
     24 C10         3.1250   -2.4280   -2.2840 c3        1 MOL      0.393525
     25 C11         3.2290    0.1710   -2.8150 c3        1 MOL     -0.190025
     26 C12         3.1880   -3.0090   -3.7110 c3        1 MOL     -0.514217
     27 H8          6.3120    0.5760   -3.2620 hn        1 MOL      0.253347
     28 H9          5.3490   -1.4140   -3.5770 h1        1 MOL      0.042236
     29 H10         3.7620   -0.7840   -1.1120 hc        1 MOL     -0.044320
     30 H11         2.1280   -2.2820   -1.8960 hc        1 MOL     -0.055895
     31 H12         3.3650   -3.1970   -1.5570 hc        1 MOL     -0.055895
     32 H13         3.8430    0.7050   -3.5370 hc        1 MOL      0.032145
     33 H14         2.2640   -0.0260   -3.2670 hc        1 MOL      0.032145
     34 H15         2.9970    0.9060   -2.0360 hc        1 MOL      0.032145
     35 H16         3.2160   -2.2510   -4.4880 hc        1 MOL      0.102724
     36 H17         4.1210   -3.5760   -3.6930 hc        1 MOL      0.102724
     37 H18         2.4070   -3.7650   -3.8040 hc        1 MOL      0.102724
     38 N3          6.2730   -2.3220   -0.4910 n         1 MOL      0.020788
     39 C13         6.9240   -3.4700    0.2240 c3        1 MOL      0.025581
     40 C14         6.2560   -4.7980    0.3030 c         1 MOL      0.586906
     41 O6          6.8700   -5.7870   -0.1200 o         1 MOL     -0.588077
     42 C15         7.4320   -3.0260    1.6130 c3        1 MOL     -0.264770
     43 C16         8.4130   -1.8550    1.4650 c         1 MOL      0.753678
     44 O7          9.2810   -1.8930    0.6270 o         1 MOL     -0.718035
     45 O8          8.2640   -0.8740    2.2060 o         1 MOL     -0.718035
     46 H19         5.8900   -1.5500    0.0350 hn        1 MOL      0.165778
     47 H20         7.8040   -3.6350   -0.4040 h1        1 MOL      0.056109
     48 H21         7.8650   -3.8850    2.1260 hc        1 MOL      0.064012
     49 H22         6.7260   -2.6070    2.3330 hc        1 MOL      0.064012
     50 N4          4.9940   -4.9580    0.7270 n         1 MOL     -0.586518
     51 C17         4.0340   -3.9260    1.2370 c3        1 MOL      0.184314
     52 C18         4.1630   -3.5890    2.7480 c         1 MOL      0.396011
     53 O9          4.9840   -4.1690    3.4120 o         1 MOL     -0.524558
     54 H23         4.6740   -5.9190    0.7570 hn        1 MOL      0.306460
     55 H24         2.9770   -4.1660    1.0850 h1        1 MOL      0.048906
     56 H25         4.0030   -2.9510    0.7540 h1        1 MOL      0.048906
     57 N5          3.2970   -2.7460    3.3300 n         1 MOL     -0.295616
     58 C19         2.1030   -2.0110    2.8340 c3        1 MOL     -0.009130
     59 C20         2.3090   -1.2170    1.5890 c         1 MOL     -0.096339
     60 O10         3.3870   -0.7690    1.2160 o         1 MOL     -0.482461
     61 C21         1.7570   -0.9960    3.9850 c3        1 MOL     -0.239387
     62 C22         2.7450    0.1630    4.2130 c         1 MOL      0.760833
     63 O11         3.3230    0.2590    5.2800 o         1 MOL     -0.682344
     64 O12         2.8660    1.0320    3.3020 o         1 MOL     -0.682344
     65 H26         3.3450   -2.8630    4.3330 hn        1 MOL      0.270274
     66 H27         1.3040   -2.7020    2.5780 h1        1 MOL      0.061002
     67 H28         1.7600   -1.5490    4.9200 hc        1 MOL      0.064037
     68 H29         0.7580   -0.6350    3.7240 hc        1 MOL      0.064037
     69 N6          1.2780   -0.9360    0.8380 n         1 MOL      0.076390
     70 C23        -0.1190   -1.4160    0.9420 c3        1 MOL     -0.042571
     71 C24        -0.4190   -2.8140    0.4220 c         1 MOL      0.519982
     72 O13         0.3880   -3.4760   -0.1620 o         1 MOL     -0.474577
     73 H30         1.3690   -0.1470    0.2080 hn        1 MOL      0.162949
     74 H31        -0.7680   -0.7200    0.4060 h1        1 MOL      0.056493
     75 H32        -0.4750   -1.3030    1.9670 h1        1 MOL      0.056493
     76 N7         -1.6640   -3.2960    0.5950 n         1 MOL     -0.530785
     77 C25        -2.1640   -4.5470   -0.0210 c3        1 MOL      0.184498
     78 C26        -2.5980   -4.3000   -1.4620 c         1 MOL      0.198415
     79 O14        -2.7260   -5.2600   -2.2840 o         1 MOL     -0.506006
     80 C27        -3.2900   -5.1400    0.7890 c3        1 MOL      0.060907
     81 C28        -4.7190   -4.5810    0.5410 c3        1 MOL     -0.139563
     82 C29        -5.7700   -5.2210    1.3980 c         1 MOL      0.744991
     83 N8         -6.9850   -4.8320    1.2720 n         1 MOL     -0.852118
     84 O15        -5.5080   -6.0900    2.1930 o         1 MOL     -0.604978
     85 H33        -2.3290   -2.7060    1.0680 hn        1 MOL      0.255749
     86 H34        -1.3780   -5.2950    0.0430 h1        1 MOL      0.091941
     87 H35        -3.0640   -4.9590    1.8400 hc        1 MOL     -0.004247
     88 H36        -3.3570   -6.2190    0.6820 hc        1 MOL     -0.004247
     89 H37        -4.9210   -4.8280   -0.4920 hc        1 MOL      0.056792
     90 H38        -4.7870   -3.5040    0.7150 hc        1 MOL      0.056792
     91 H39        -7.1480   -4.0120    0.7170 hn        1 MOL      0.369809
     92 H40        -7.6470   -5.2580    1.9130 hn        1 MOL      0.369809
     93 N9         -2.9190   -3.0930   -1.9170 n         1 MOL      0.028835
     94 C30        -2.9910   -2.7530   -3.3220 c3        1 MOL     -0.306503
     95 C31        -4.2390   -1.8760   -3.6920 c         1 MOL      0.458432
     96 O16        -4.6020   -1.7110   -4.8700 o         1 MOL     -0.551470
     97 C32        -1.6870   -2.0560   -3.7860 c3        1 MOL      0.318344
     98 C33        -0.5890   -3.1610   -3.8840 c3        1 MOL     -0.164802
     99 C34        -1.3780   -0.8060   -2.9660 c3        1 MOL     -0.164802
    100 H41        -2.7630   -2.3010   -1.2930 hn        1 MOL      0.210854
    101 H42        -3.0010   -3.7090   -3.8540 h1        1 MOL      0.157405
    102 H43        -1.8850   -1.7580   -4.8180 hc        1 MOL     -0.029685
    103 H44        -0.9640   -3.8920   -4.6040 hc        1 MOL      0.031698
    104 H45         0.2960   -2.6880   -4.2990 hc        1 MOL      0.031698
    105 H46        -0.3860   -3.6700   -2.9400 hc        1 MOL      0.031698
    106 H47        -0.9870   -1.1460   -2.0010 hc        1 MOL      0.031698
    107 H48        -0.6500   -0.2170   -3.5190 hc        1 MOL      0.031698
    108 H49        -2.2620   -0.1880   -2.8060 hc        1 MOL      0.031698
    109 N10        -5.0300   -1.4060   -2.7370 n         1 MOL     -0.138916
    110 C35        -6.1060   -0.4610   -2.9130 c3        1 MOL      0.090257
    111 C36        -5.8940    0.6370   -1.9230 c         1 MOL      0.571985
    112 O17        -5.6860    1.7790   -2.3780 o         1 MOL     -0.558919
    113 C37        -7.4900   -1.1450   -2.8140 c3        1 MOL     -0.205039
    114 C38        -7.6600   -1.9540   -1.5130 c         1 MOL      0.526725
    115 N11        -8.9620   -2.3300   -1.4000 n         1 MOL     -0.782347
    116 O18        -6.7730   -2.2880   -0.6880 o         1 MOL     -0.471178
    117 H50        -4.7520   -1.7800   -1.8410 hn        1 MOL     -0.018446
    118 H51        -6.0670   -0.0500   -3.9200 h1        1 MOL      0.072429
    119 H52        -7.6580   -1.7490   -3.7080 hc        1 MOL      0.086225
    120 H53        -8.2210   -0.3470   -2.8460 hc        1 MOL      0.086225
    121 H54        -9.6080   -1.9940   -2.1060 hn        1 MOL      0.366852
    122 H55        -9.2890   -2.8920   -0.6340 hn        1 MOL      0.366852
    123 N12        -5.8040    0.4260   -0.5770 n         1 MOL     -0.366127
    124 C39        -5.7590    1.6030    0.3220 c3        1 MOL     -0.410679
    125 C40        -4.5340    2.4920    0.3380 c         1 MOL      0.859322
    126 O19        -3.3960    2.0130    0.4540 o         1 MOL     -0.569354
    127 C41        -5.9560    1.1790    1.7780 c3        1 MOL     -0.058002
    128 C42        -7.1010    0.1720    2.0320 ca        1 MOL      0.109365
    129 C43        -6.9120   -0.9130    2.8800 ca        1 MOL     -0.206214
    130 C44        -8.3500    0.3520    1.3880 ca        1 MOL     -0.206214
    131 C45        -7.8940   -1.9150    3.0070 ca        1 MOL     -0.184444
    132 C46        -9.3230   -0.6490    1.4940 ca        1 MOL     -0.184444
    133 C47        -9.0910   -1.8140    2.2890 ca        1 MOL      0.245138
    134 O20       -10.0230   -2.8420    2.3780 oh        1 MOL     -0.477208
    135 H56        -6.1020   -0.4830   -0.2390 hn        1 MOL      0.300621
    136 H57        -6.5830    2.2520    0.0480 h1        1 MOL      0.102125
    137 H58        -6.1760    2.0700    2.3640 hc        1 MOL      0.100910
    138 H59        -5.0120    0.8200    2.1750 hc        1 MOL      0.100910
    139 H60        -6.0210   -0.9680    3.4910 ha        1 MOL      0.152777
    140 H61        -8.5900    1.2560    0.8710 ha        1 MOL      0.152777
    141 H62        -7.7530   -2.8240    3.5730 ha        1 MOL      0.121324
    142 H63       -10.1940   -0.5710    0.8640 ha        1 MOL      0.121324
    143 H64       -10.6950   -2.8070    1.6930 ho        1 MOL      0.335739
    144 N13        -4.8190    3.7930    0.4260 n         1 MOL     -0.698815
    145 C48        -3.9520    4.9160    0.8190 c3        1 MOL      0.077593
    146 C49        -2.8760    5.3590   -0.2390 c         1 MOL      0.546213
    147 O21        -2.6540    6.5900   -0.3130 o         1 MOL     -0.556981
    148 C50        -3.5130    4.8480    2.3460 c3        1 MOL      0.077077
    149 C51        -4.6430    4.8290    3.2930 c3        1 MOL     -0.174486
    150 C52        -4.2360    5.3120    4.6720 c         1 MOL      0.700699
    151 O22        -4.2380    4.5020    5.6300 o         1 MOL     -0.722173
    152 O23        -4.1500    6.5430    4.8210 o         1 MOL     -0.722173
    153 H65        -5.8140    3.9070    0.5080 hn        1 MOL      0.361605
    154 H66        -4.5760    5.8040    0.8690 h1        1 MOL      0.047858
    155 H67        -2.8620    5.6870    2.5910 hc        1 MOL      0.017075
    156 H68        -2.8430    3.9840    2.3810 hc        1 MOL      0.017075
    157 H69        -4.9530    3.7970    3.4810 hc        1 MOL      0.001331
    158 H70        -5.4570    5.4040    2.8620 hc        1 MOL      0.001331
    159 N14        -2.1710    4.4130   -0.8840 n         1 MOL     -0.415087
    160 C53        -0.9590    4.6650   -1.6300 c3        1 MOL     -0.120928
    161 C54        -1.1320    5.4590   -2.9040 c         1 MOL      0.504317
    162 O24        -0.1140    5.8210   -3.4610 o         1 MOL     -0.529635
    163 C55        -0.3950    3.2770   -2.0830 c3        1 MOL     -0.184195
    164 C56        -0.1580    2.3020   -0.8720 c3        1 MOL      0.576739
    165 C57         1.1220    2.5330   -0.0410 c         1 MOL      0.490657
    166 O25         1.9370    1.6130    0.2050 o         1 MOL     -0.659300
    167 O26         1.5070    3.6760    0.2390 o         1 MOL     -0.659300
    168 H71        -2.4990    3.4650   -0.7490 hn        1 MOL      0.251681
    169 H72        -0.2050    5.1730   -1.0210 h1        1 MOL      0.182941
    170 H73         0.4610    3.4130   -2.7400 hc        1 MOL      0.053187
    171 H74        -1.1770    2.7910   -2.6640 hc        1 MOL      0.053187
    172 H75         0.0130    1.3350   -1.3580 hc        1 MOL     -0.181457
    173 H76        -1.0060    2.2340   -0.1930 hc        1 MOL     -0.181457
    174 N15        -2.3820    5.8110   -3.2540 n         1 MOL     -0.216301
    175 C58        -2.7300    6.6060   -4.4110 c3        1 MOL     -0.314674
    176 H77        -2.2580    6.1810   -5.2970 h1        1 MOL      0.114034
    177 H78        -3.8120    6.6050   -4.5400 h1        1 MOL      0.114034
    178 H79        -2.3820    7.6280   -4.2680 h1        1 MOL      0.114034
    179 H80        -3.1510    5.6220   -2.6190 hn        1 MOL      0.228444
    180 Ca1         4.1240    1.9200    1.2990 Ca        1 MOL      1.796092
    181 O27         5.9270    0.4490    2.6300 oh        1 MOL     -0.922226
    182 H81         5.7150    0.0200    3.4550 ho        1 MOL      0.437339
    183 H82         6.7360    0.0180    2.3340 ho        1 MOL      0.437339
    184 O28         3.7560    4.1490    2.8190 oh        1 MOL     -0.922226
    185 H83         3.4290    4.2770    3.7090 ho        1 MOL      0.437339
    186 H84         3.3720    4.8590    2.3090 ho        1 MOL      0.437339
@<TRIPOS>BOND
     1    1    2 1   
     2    1    4 1   
     3    1    5 1   
     4    1    6 1   
     5    2    3 2   
     6    2    7 1   
     7    7    8 1   
     8    7   15 1   
     9    8    9 1   
    10    8   11 1   
    11    8   16 1   
    12    9   10 2   
    13    9   19 1   
    14   11   12 1   
    15   11   17 1   
    16   11   18 1   
    17   12   13 1   
    18   12   14 1   
    19   19   20 1   
    20   19   27 1   
    21   20   21 1   
    22   20   23 1   
    23   20   28 1   
    24   21   22 2   
    25   21   38 1   
    26   23   24 1   
    27   23   25 1   
    28   23   29 1   
    29   24   26 1   
    30   24   30 1   
    31   24   31 1   
    32   25   32 1   
    33   25   33 1   
    34   25   34 1   
    35   26   35 1   
    36   26   36 1   
    37   26   37 1   
    38   38   39 1   
    39   38   46 1   
    40   39   40 1   
    41   39   42 1   
    42   39   47 1   
    43   40   41 2   
    44   40   50 1   
    45   42   43 1   
    46   42   48 1   
    47   42   49 1   
    48   43   44 1   
    49   43   45 1   
    50   50   51 1   
    51   50   54 1   
    52   51   52 1   
    53   51   55 1   
    54   51   56 1   
    55   52   53 2   
    56   52   57 1   
    57   57   58 1   
    58   57   65 1   
    59   58   59 1   
    60   58   61 1   
    61   58   66 1   
    62   59   60 2   
    63   59   69 1   
    64   61   62 1   
    65   61   67 1   
    66   61   68 1   
    67   62   63 1   
    68   62   64 1   
    69   69   70 1   
    70   69   73 1   
    71   70   71 1   
    72   70   74 1   
    73   70   75 1   
    74   71   72 2   
    75   71   76 1   
    76   76   77 1   
    77   76   85 1   
    78   77   78 1   
    79   77   80 1   
    80   77   86 1   
    81   78   79 2   
    82   78   93 1   
    83   80   81 1   
    84   80   87 1   
    85   80   88 1   
    86   81   82 1   
    87   81   89 1   
    88   81   90 1   
    89   82   83 1   
    90   82   84 2   
    91   83   91 1   
    92   83   92 1   
    93   93   94 1   
    94   93  100 1   
    95   94   95 1   
    96   94   97 1   
    97   94  101 1   
    98   95   96 2   
    99   95  109 1   
   100   97   98 1   
   101   97   99 1   
   102   97  102 1   
   103   98  103 1   
   104   98  104 1   
   105   98  105 1   
   106   99  106 1   
   107   99  107 1   
   108   99  108 1   
   109  109  110 1   
   110  109  117 1   
   111  110  111 1   
   112  110  113 1   
   113  110  118 1   
   114  111  112 2   
   115  111  123 1   
   116  113  114 1   
   117  113  119 1   
   118  113  120 1   
   119  114  115 1   
   120  114  116 2   
   121  115  121 1   
   122  115  122 1   
   123  123  124 1   
   124  123  135 1   
   125  124  125 1   
   126  124  127 1   
   127  124  136 1   
   128  125  126 2   
   129  125  144 1   
   130  127  128 1   
   131  127  137 1   
   132  127  138 1   
   133  128  129 ar  
   134  128  130 ar  
   135  129  131 ar  
   136  129  139 1   
   137  130  132 ar  
   138  130  140 1   
   139  131  133 ar  
   140  131  141 1   
   141  132  133 ar  
   142  132  142 1   
   143  133  134 1   
   144  134  143 1   
   145  144  145 1   
   146  144  153 1   
   147  145  146 1   
   148  145  148 1   
   149  145  154 1   
   150  146  147 2   
   151  146  159 1   
   152  148  149 1   
   153  148  155 1   
   154  148  156 1   
   155  149  150 1   
   156  149  157 1   
   157  149  158 1   
   158  150  151 1   
   159  150  152 1   
   160  159  160 1   
   161  159  168 1   
   162  160  161 1   
   163  160  163 1   
   164  160  169 1   
   165  161  162 2   
   166  161  174 1   
   167  163  164 1   
   168  163  170 1   
   169  163  171 1   
   170  164  165 1   
   171  164  172 1   
   172  164  173 1   
   173  165  166 1   
   174  165  167 1   
   175  174  175 1   
   176  174  179 1   
   177  175  176 1   
   178  175  177 1   
   179  175  178 1   
   180  181  182 1   
   181  181  183 1   
   182  184  185 1   
   183  184  186 1   
@<TRIPOS>SUBSTRUCTURE
     1 MOL         1 TEMP              0 ****  ****    0 ROOT
