@<TRIPOS>MOLECULE
MOL
  188   182     1     0     0
SMALL
resp


@<TRIPOS>ATOM
      1 C1         -6.3520   -1.7440    2.5460 c3        1 MOL     -0.504741
      2 C2         -6.8210   -1.8960    1.0880 c         1 MOL      0.679162
      3 O1         -6.1240   -1.4600    0.1950 o         1 MOL     -0.457024
      4 H1         -6.4440   -2.7030    3.0590 hc        1 MOL      0.123794
      5 H2         -5.3100   -1.4230    2.5620 hc        1 MOL      0.123794
      6 H3         -6.9700   -1.0030    3.0520 hc        1 MOL      0.123794
      7 N1         -8.0440   -2.4290    0.8710 n         1 MOL     -0.484540
      8 C3         -8.8560   -2.1330   -0.2920 c3        1 MOL      0.041355
      9 C4         -8.9420   -0.6350   -0.7150 c         1 MOL      0.474255
     10 O2         -8.8690   -0.2480   -1.9040 o         1 MOL     -0.512916
     11 C5         -8.7120   -3.0880   -1.5000 c3        1 MOL     -0.188295
     12 C6         -8.7530   -4.6030   -1.0680 c         1 MOL      0.704748
     13 O3         -8.1010   -5.4220   -1.7410 o         1 MOL     -0.679447
     14 O4         -9.4280   -4.9360   -0.0770 o         1 MOL     -0.679447
     15 H4         -8.4830   -2.7170    1.7340 hn        1 MOL      0.287067
     16 H5         -9.8680   -2.3710    0.0400 h1        1 MOL      0.031322
     17 H6         -7.8300   -2.8170   -2.0640 hc        1 MOL      0.053360
     18 H7         -9.5670   -2.9750   -2.1640 hc        1 MOL      0.053360
     19 N2         -8.9470    0.2360    0.2860 n         1 MOL     -0.315666
     20 C7         -8.9600    1.7220    0.1340 c3        1 MOL      0.023354
     21 C8         -7.5190    2.3540    0.0940 c         1 MOL      0.577010
     22 O5         -7.4060    3.5650   -0.0610 o         1 MOL     -0.596992
     23 C9         -9.7960    2.3330    1.2490 c3        1 MOL     -0.059922
     24 C10       -11.2590    2.0810    1.1310 c3        1 MOL      0.137627
     25 C11       -12.0320    2.5800    2.3970 c3        1 MOL     -0.040810
     26 C12       -13.5510    2.6560    2.2750 c3        1 MOL      0.025408
     27 N3        -14.1390    2.3710    3.6330 n4        1 MOL     -0.331202
     28 H8         -8.8630   -0.1570    1.2090 hn        1 MOL      0.212403
     29 H9         -9.4030    1.9030   -0.8410 h1        1 MOL      0.101971
     30 H10        -9.6720    3.4080    1.2750 hc        1 MOL      0.016656
     31 H11        -9.5210    1.9130    2.2220 hc        1 MOL      0.016656
     32 H12       -11.3910    1.0160    0.9480 hc        1 MOL     -0.032916
     33 H13       -11.6360    2.5760    0.2370 hc        1 MOL     -0.032916
     34 H14       -11.6810    3.5880    2.6240 hc        1 MOL      0.024311
     35 H15       -11.7130    1.9110    3.2010 hc        1 MOL      0.024311
     36 H16       -13.9540    1.9720    1.5180 hx        1 MOL      0.093624
     37 H17       -13.7770    3.6280    1.8330 hx        1 MOL      0.093624
     38 H18       -15.1110    2.1540    3.4730 hn        1 MOL      0.233889
     39 H19       -13.7320    1.5390    4.0270 hn        1 MOL      0.233889
     40 H20       -13.9160    3.1240    4.2660 hn        1 MOL      0.233889
     41 N4         -6.4820    1.6150    0.3630 n         1 MOL     -0.440084
     42 C13        -5.0530    2.0220    0.2180 c3        1 MOL      0.116527
     43 C14        -4.7720    2.3880   -1.2970 c         1 MOL      0.520096
     44 O6         -5.1480    1.7160   -2.2480 o         1 MOL     -0.435586
     45 C15        -4.1780    0.8930    0.7200 c3        1 MOL     -0.128720
     46 C16        -2.7470    1.2350    0.8160 c         1 MOL      0.516430
     47 O7         -2.2870    1.7620    1.8200 o         1 MOL     -0.674982
     48 O8         -1.9830    1.1770   -0.1520 o         1 MOL     -0.674982
     49 H21        -6.6850    0.6270    0.3370 hn        1 MOL      0.219518
     50 H22        -4.8730    2.9140    0.8180 h1        1 MOL      0.037893
     51 H23        -4.2080    0.0890   -0.0130 hc        1 MOL      0.043509
     52 H24        -4.5820    0.5730    1.6850 hc        1 MOL      0.043509
     53 N5         -4.0640    3.5240   -1.3710 n         1 MOL     -0.334396
     54 C17        -3.8120    4.1990   -2.6210 c3        1 MOL     -0.212202
     55 C18        -2.7960    3.5230   -3.5870 c         1 MOL      0.423348
     56 O9         -2.8310    3.7670   -4.8070 o         1 MOL     -0.503501
     57 H25        -3.9580    4.0810   -0.5450 hn        1 MOL      0.264992
     58 H26        -3.7280    5.2830   -2.6530 h1        1 MOL      0.138967
     59 H27        -4.7730    4.1680   -3.1310 h1        1 MOL      0.138967
     60 N6         -2.1220    2.4560   -3.1420 n         1 MOL     -0.370349
     61 C19        -1.3590    1.5180   -3.9590 c3        1 MOL     -0.025685
     62 C20        -1.5540    0.0520   -3.4450 c         1 MOL      0.469043
     63 O10        -0.7650   -0.8360   -3.7010 o         1 MOL     -0.565035
     64 C21         0.1240    1.8240   -4.1720 c3        1 MOL     -0.306904
     65 C22         0.9870    1.6660   -2.9110 c         1 MOL      0.612166
     66 N7          2.1880    1.2470   -3.0430 n         1 MOL     -0.700872
     67 O11         0.5170    1.8910   -1.8020 o         1 MOL     -0.613934
     68 H28        -2.0730    2.2350   -2.1600 hn        1 MOL      0.391237
     69 H29        -1.6850    1.5760   -4.9960 h1        1 MOL      0.148465
     70 H30         0.1330    2.8730   -4.4580 hc        1 MOL      0.125706
     71 H31         0.5500    1.3690   -5.0640 hc        1 MOL      0.125706
     72 H32         2.5970    1.0190   -3.9440 hn        1 MOL      0.361156
     73 H33         2.6560    0.9800   -2.1900 hn        1 MOL      0.361156
     74 N8         -2.6110   -0.1460   -2.7090 n         1 MOL     -0.219530
     75 C23        -3.2230   -1.4870   -2.4240 c3        1 MOL     -0.172395
     76 C24        -2.5470   -2.3530   -1.3530 c         1 MOL      0.510423
     77 O12        -2.8970   -3.5080   -1.3040 o         1 MOL     -0.515574
     78 H34        -3.1310    0.7060   -2.5230 hn        1 MOL      0.136716
     79 H35        -3.2730   -2.0440   -3.3660 h1        1 MOL      0.138516
     80 H36        -4.2780   -1.3420   -2.1720 h1        1 MOL      0.138516
     81 N9         -1.6720   -1.7860   -0.5330 n         1 MOL     -0.342098
     82 C25        -0.9110   -2.4500    0.5170 c3        1 MOL      0.055201
     83 C26         0.3230   -1.6500    0.6500 c         1 MOL      0.162205
     84 O13         0.2980   -0.4300    0.4840 o         1 MOL     -0.494443
     85 C27        -1.7630   -2.4020    1.8130 c3        1 MOL     -0.102741
     86 C28        -0.8830   -2.5650    3.0250 ca        1 MOL     -0.058103
     87 C29        -0.4750   -3.8510    3.4380 ca        1 MOL     -0.043243
     88 C30        -0.5620   -1.4160    3.7820 ca        1 MOL     -0.043243
     89 C31         0.4610   -4.0290    4.5360 ca        1 MOL     -0.363617
     90 C32         0.2240   -1.6260    4.9440 ca        1 MOL     -0.363617
     91 C33         0.8380   -2.9250    5.2810 ca        1 MOL      0.410079
     92 O14         1.6590   -3.0680    6.3490 oh        1 MOL     -0.454569
     93 H37        -1.4080   -0.8200   -0.6250 hn        1 MOL      0.311189
     94 H38        -0.6900   -3.5030    0.3230 h1        1 MOL      0.090835
     95 H39        -2.4710   -3.2300    1.7810 hc        1 MOL      0.102154
     96 H40        -2.3700   -1.5000    1.9200 hc        1 MOL      0.102154
     97 H41        -0.6950   -4.7560    2.8930 ha        1 MOL      0.124635
     98 H42        -0.9330   -0.4060    3.6430 ha        1 MOL      0.124635
     99 H43         0.8000   -5.0040    4.8450 ha        1 MOL      0.160728
    100 H44         0.5410   -0.8190    5.5770 ha        1 MOL      0.160728
    101 H45         1.6800   -2.2490    6.8490 ho        1 MOL      0.347907
    102 N10         1.4670   -2.3000    0.9190 n         1 MOL     -0.051278
    103 C34         2.8070   -1.7170    0.7960 c3        1 MOL     -0.015215
    104 C35         3.1280   -1.4330   -0.6770 c         1 MOL      0.342943
    105 O15         3.9580   -0.5870   -1.0230 o         1 MOL     -0.533852
    106 C36         3.7040   -2.7930    1.4520 c3        1 MOL      0.148406
    107 C37         3.2440   -3.0710    2.8900 c3        1 MOL      0.243314
    108 C38         5.1470   -2.2830    1.3970 c3        1 MOL     -0.280865
    109 C39         4.1560   -3.9080    3.8340 c3        1 MOL     -0.280708
    110 H46         1.4560   -3.2950    1.0510 hn        1 MOL      0.142134
    111 H47         2.7570   -0.8120    1.4030 h1        1 MOL      0.054282
    112 H48         3.7430   -3.7390    0.9200 hc        1 MOL     -0.018693
    113 H49         2.3940   -3.7290    2.7090 hc        1 MOL     -0.064618
    114 H50         2.8680   -2.1660    3.3750 hc        1 MOL     -0.064618
    115 H51         5.1660   -1.3910    2.0290 hc        1 MOL      0.042598
    116 H52         5.6900   -3.0770    1.8990 hc        1 MOL      0.042598
    117 H53         5.5920   -1.9830    0.4550 hc        1 MOL      0.042598
    118 H54         3.6270   -4.1220    4.7680 hc        1 MOL      0.078366
    119 H55         4.5780   -4.7610    3.3090 hc        1 MOL      0.078366
    120 H56         5.0950   -3.4370    4.1420 hc        1 MOL      0.078366
    121 N11         2.6210   -2.2510   -1.6300 n         1 MOL     -0.083141
    122 C40         3.0300   -2.1870   -3.0210 c3        1 MOL     -0.068176
    123 C41         4.5550   -2.3240   -3.2330 c         1 MOL      0.472359
    124 O16         5.1380   -1.7690   -4.1660 o         1 MOL     -0.523050
    125 C42         2.1630   -3.1420   -3.9310 c3        1 MOL      0.047864
    126 O17         2.2740   -4.4240   -3.3000 oh        1 MOL     -0.597056
    127 H57         2.0410   -3.0320   -1.3490 hn        1 MOL      0.200098
    128 H58         2.7900   -1.1730   -3.3440 h1        1 MOL      0.047917
    129 H59         2.5370   -3.0840   -4.9480 h1        1 MOL      0.091063
    130 H60         1.1140   -2.8110   -3.9150 h1        1 MOL      0.091063
    131 H61         1.9220   -4.9560   -4.0210 ho        1 MOL      0.419671
    132 N12         5.1730   -3.0940   -2.3280 n         1 MOL     -0.283572
    133 C43         6.6210   -3.3770   -1.9700 c3        1 MOL      0.171286
    134 C44         7.5080   -2.1350   -1.7760 c         1 MOL      0.407841
    135 O18         8.7250   -2.3030   -1.6460 o         1 MOL     -0.499709
    136 C45         7.1680   -4.2230   -3.0860 c3        1 MOL     -0.307561
    137 H62         4.4380   -3.6410   -1.9070 hn        1 MOL      0.180902
    138 H63         6.5980   -3.9300   -1.0390 h1        1 MOL      0.083716
    139 H64         6.9150   -3.8200   -4.0740 hc        1 MOL      0.090570
    140 H65         8.2450   -4.3970   -3.0270 hc        1 MOL      0.090570
    141 H66         6.6610   -5.1780   -3.0040 hc        1 MOL      0.090570
    142 N13         6.9510   -0.8900   -1.5900 n         1 MOL     -0.332306
    143 C46         7.8880    0.2910   -1.4760 c3        1 MOL      0.104111
    144 C47         8.5720    0.5460   -0.1360 c         1 MOL      0.638966
    145 O19         8.1090    0.1440    0.9170 o         1 MOL     -0.550239
    146 C48         7.0610    1.4880   -1.9330 c3        1 MOL     -0.145795
    147 H67         5.9540   -0.7620   -1.7150 hn        1 MOL      0.300901
    148 H68         8.6780    0.2080   -2.2240 h1        1 MOL      0.046042
    149 H69         7.6170    2.4130   -1.7740 hc        1 MOL      0.031849
    150 H70         6.7370    1.3330   -2.9620 hc        1 MOL      0.031849
    151 H71         6.1410    1.5340   -1.3470 hc        1 MOL      0.031849
    152 N14         9.7310    1.2350   -0.1740 n         1 MOL     -0.644680
    153 C49        10.6450    1.6360    0.8820 c3        1 MOL      0.325909
    154 C50        10.9910    0.5010    1.9000 c         1 MOL      0.328240
    155 O20        11.3540    0.7500    3.0160 o         1 MOL     -0.487793
    156 C51        10.2770    2.9870    1.5290 c3        1 MOL      0.051604
    157 C52        10.7510    4.1120    0.5200 c3        1 MOL     -0.256249
    158 C53        10.7070    5.3870    1.3710 c         1 MOL      0.753126
    159 O21        11.7660    5.9410    1.7450 o         1 MOL     -0.664160
    160 O22         9.6450    6.0380    1.5030 o         1 MOL     -0.664160
    161 H72        10.0150    1.5640   -1.0880 hn        1 MOL      0.292887
    162 H73        11.6470    1.7160    0.4740 h1        1 MOL      0.009175
    163 H74        10.6420    3.1670    2.5380 hc        1 MOL     -0.004987
    164 H75         9.1870    3.0270    1.6050 hc        1 MOL     -0.004987
    165 H76        10.0040    4.2510   -0.2650 hc        1 MOL      0.038354
    166 H77        11.6740    3.8960   -0.0010 hc        1 MOL      0.038354
    167 N15        11.0060   -0.7620    1.4540 n         1 MOL     -0.202744
    168 C54        11.4450   -1.9570    2.2220 c3        1 MOL     -0.073308
    169 H78        10.6300   -2.6800    2.2640 h1        1 MOL      0.063268
    170 H79        12.3070   -2.4090    1.7310 h1        1 MOL      0.063268
    171 H80        11.7190   -1.6590    3.2340 h1        1 MOL      0.063268
    172 H81        10.8800   -0.8820    0.4630 hn        1 MOL      0.176960
    173 Ca1         0.0950    2.2430    0.7780 Ca        1 MOL      1.754425
    174 O23        -0.0730    4.5320    2.6160 oh        1 MOL     -0.828908
    175 H82         0.0660    5.4340    2.3120 ho        1 MOL      0.412179
    176 H83         0.4620    4.4620    3.4000 ho        1 MOL      0.412179
    177 O24         2.0740    4.3920    0.2900 oh        1 MOL     -0.828908
    178 H84         3.0120    4.3590    0.4880 ho        1 MOL      0.412179
    179 H85         1.9080    5.3110    0.0710 ho        1 MOL      0.412179
    180 O25        -1.1590    4.4400   -0.1000 oh        1 MOL     -0.828908
    181 H86        -1.0780    4.9430   -0.9080 ho        1 MOL      0.412179
    182 H87        -1.8580    4.8750    0.3830 ho        1 MOL      0.412179
    183 O26         2.6300    1.5430    0.6890 oh        1 MOL     -0.828908
    184 H88         3.1480    2.2910    0.9800 ho        1 MOL      0.412179
    185 H89         3.2690    0.8810    0.4460 ho        1 MOL      0.412179
    186 O27         1.0100    1.8840    3.1920 oh        1 MOL     -0.828908
    187 H90         0.9310    2.4850    3.9380 ho        1 MOL      0.412179
    188 H91         1.8090    1.3950    3.3630 ho        1 MOL      0.412179
@<TRIPOS>BOND
     1    1    2 1   
     2    1    4 1   
     3    1    5 1   
     4    1    6 1   
     5    2    3 2   
     6    2    7 1   
     7    7    8 1   
     8    7   15 1   
     9    8    9 1   
    10    8   11 1   
    11    8   16 1   
    12    9   10 2   
    13    9   19 1   
    14   11   12 1   
    15   11   17 1   
    16   11   18 1   
    17   12   13 1   
    18   12   14 1   
    19   19   20 1   
    20   19   28 1   
    21   20   21 1   
    22   20   23 1   
    23   20   29 1   
    24   21   22 2   
    25   21   41 1   
    26   23   24 1   
    27   23   30 1   
    28   23   31 1   
    29   24   25 1   
    30   24   32 1   
    31   24   33 1   
    32   25   26 1   
    33   25   34 1   
    34   25   35 1   
    35   26   27 1   
    36   26   36 1   
    37   26   37 1   
    38   27   38 1   
    39   27   39 1   
    40   27   40 1   
    41   41   42 1   
    42   41   49 1   
    43   42   43 1   
    44   42   45 1   
    45   42   50 1   
    46   43   44 2   
    47   43   53 1   
    48   45   46 1   
    49   45   51 1   
    50   45   52 1   
    51   46   47 1   
    52   46   48 1   
    53   53   54 1   
    54   53   57 1   
    55   54   55 1   
    56   54   58 1   
    57   54   59 1   
    58   55   56 2   
    59   55   60 1   
    60   60   61 1   
    61   60   68 1   
    62   61   62 1   
    63   61   64 1   
    64   61   69 1   
    65   62   63 2   
    66   62   74 1   
    67   64   65 1   
    68   64   70 1   
    69   64   71 1   
    70   65   66 1   
    71   65   67 2   
    72   66   72 1   
    73   66   73 1   
    74   74   75 1   
    75   74   78 1   
    76   75   76 1   
    77   75   79 1   
    78   75   80 1   
    79   76   77 2   
    80   76   81 1   
    81   81   82 1   
    82   81   93 1   
    83   82   83 1   
    84   82   85 1   
    85   82   94 1   
    86   83   84 2   
    87   83  102 1   
    88   85   86 1   
    89   85   95 1   
    90   85   96 1   
    91   86   87 ar  
    92   86   88 ar  
    93   87   89 ar  
    94   87   97 1   
    95   88   90 ar  
    96   88   98 1   
    97   89   91 ar  
    98   89   99 1   
    99   90   91 ar  
   100   90  100 1   
   101   91   92 1   
   102   92  101 1   
   103  102  103 1   
   104  102  110 1   
   105  103  104 1   
   106  103  106 1   
   107  103  111 1   
   108  104  105 2   
   109  104  121 1   
   110  106  107 1   
   111  106  108 1   
   112  106  112 1   
   113  107  109 1   
   114  107  113 1   
   115  107  114 1   
   116  108  115 1   
   117  108  116 1   
   118  108  117 1   
   119  109  118 1   
   120  109  119 1   
   121  109  120 1   
   122  121  122 1   
   123  121  127 1   
   124  122  123 1   
   125  122  125 1   
   126  122  128 1   
   127  123  124 2   
   128  123  132 1   
   129  125  126 1   
   130  125  129 1   
   131  125  130 1   
   132  126  131 1   
   133  132  133 1   
   134  132  137 1   
   135  133  134 1   
   136  133  136 1   
   137  133  138 1   
   138  134  135 2   
   139  134  142 1   
   140  136  139 1   
   141  136  140 1   
   142  136  141 1   
   143  142  143 1   
   144  142  147 1   
   145  143  144 1   
   146  143  146 1   
   147  143  148 1   
   148  144  145 2   
   149  144  152 1   
   150  146  149 1   
   151  146  150 1   
   152  146  151 1   
   153  152  153 1   
   154  152  161 1   
   155  153  154 1   
   156  153  156 1   
   157  153  162 1   
   158  154  155 2   
   159  154  167 1   
   160  156  157 1   
   161  156  163 1   
   162  156  164 1   
   163  157  158 1   
   164  157  165 1   
   165  157  166 1   
   166  158  159 1   
   167  158  160 1   
   168  167  168 1   
   169  167  172 1   
   170  168  169 1   
   171  168  170 1   
   172  168  171 1   
   173  174  175 1   
   174  174  176 1   
   175  177  178 1   
   176  177  179 1   
   177  180  181 1   
   178  180  182 1   
   179  183  184 1   
   180  183  185 1   
   181  186  187 1   
   182  186  188 1   
@<TRIPOS>SUBSTRUCTURE
     1 MOL         1 TEMP              0 ****  ****    0 ROOT
