@<TRIPOS>MOLECULE
MOL
  192   187     1     0     0
SMALL
resp


@<TRIPOS>ATOM
      1 C1         -5.5370    6.8460    1.6640 c3        1 MOL     -0.395134
      2 C2         -5.1550    5.3720    1.6110 c         1 MOL      0.705880
      3 O1         -4.8420    4.7290    2.6110 o         1 MOL     -0.572005
      4 H1         -6.5990    6.9370    1.8930 hc        1 MOL      0.104727
      5 H2         -4.9540    7.3450    2.4370 hc        1 MOL      0.104727
      6 H3         -5.3340    7.3090    0.6980 hc        1 MOL      0.104727
      7 N1         -5.1450    4.7830    0.4010 n         1 MOL     -0.548282
      8 C3         -4.9200    3.3720    0.2440 c3        1 MOL      0.068390
      9 C4         -3.3970    2.9970    0.3290 c         1 MOL      0.472462
     10 O2         -3.0190    1.8640    0.7910 o         1 MOL     -0.546747
     11 C5         -5.6090    2.8150   -1.0620 c3        1 MOL     -0.111398
     12 C6         -5.1630    3.5560   -2.3540 c         1 MOL      0.634323
     13 O3         -4.3010    3.0210   -3.0640 o         1 MOL     -0.680763
     14 O4         -5.7080    4.6340   -2.6300 o         1 MOL     -0.680763
     15 H4         -5.5630    5.2850   -0.3820 hn        1 MOL      0.302450
     16 H5         -5.2650    2.7630    1.0840 h1        1 MOL      0.096084
     17 H6         -6.6940    2.7730   -1.0540 hc        1 MOL      0.037035
     18 H7         -5.2590    1.7880   -1.0050 hc        1 MOL      0.037035
     19 N2         -2.4480    3.7970   -0.1550 n         1 MOL     -0.286315
     20 C7         -1.0070    3.3960   -0.3270 c3        1 MOL      0.063099
     21 C8         -0.3530    3.4480    1.0990 c         1 MOL      0.426333
     22 O5         -0.7840    4.2950    1.9010 o         1 MOL     -0.551613
     23 C9         -0.3070    4.3840   -1.3190 c3        1 MOL     -0.371502
     24 C10        -0.8960    4.3590   -2.6790 c3        1 MOL     -0.063719
     25 C11        -0.8050    3.0410   -3.4340 c3        1 MOL      0.199772
     26 C12        -1.1980    3.0770   -4.9020 c3        1 MOL     -0.016359
     27 N3         -2.5190    3.7590   -5.1090 n4        1 MOL     -0.345348
     28 H8         -2.6620    4.7820   -0.1420 hn        1 MOL      0.236406
     29 H9         -1.0440    2.3760   -0.7050 h1        1 MOL      0.102339
     30 H10         0.7740    4.2330   -1.3320 hc        1 MOL      0.155388
     31 H11        -0.5020    5.4050   -1.0000 hc        1 MOL      0.155388
     32 H12        -0.3570    5.1420   -3.2170 hc        1 MOL      0.041952
     33 H13        -1.9440    4.6440   -2.6720 hc        1 MOL      0.041952
     34 H14        -1.4760    2.2830   -3.0160 hc        1 MOL     -0.033326
     35 H15         0.2210    2.6840   -3.3530 hc        1 MOL     -0.033326
     36 H16        -1.3470    2.0720   -5.3080 hx        1 MOL      0.063891
     37 H17        -0.4680    3.6460   -5.4780 hx        1 MOL      0.063891
     38 H18        -2.3410    4.7530   -5.0780 hn        1 MOL      0.290978
     39 H19        -2.9160    3.4460   -5.9730 hn        1 MOL      0.290978
     40 H20        -3.1530    3.5790   -4.3390 hn        1 MOL      0.290978
     41 N4          0.4780    2.5500    1.5650 n         1 MOL     -0.181169
     42 C13         1.0260    1.3560    0.8560 c3        1 MOL     -0.550804
     43 C14         1.2830    1.4430   -0.6870 c         1 MOL      0.668495
     44 O6          0.4930    0.8920   -1.4630 o         1 MOL     -0.552447
     45 C15         0.1160    0.1430    1.1460 c3        1 MOL     -0.142434
     46 C16        -0.1760   -0.2720    2.6000 c         1 MOL      0.369175
     47 O7          0.2780    0.2770    3.5990 o         1 MOL     -0.531050
     48 O8         -0.9610   -1.1950    2.7450 o         1 MOL     -0.531050
     49 H21         0.6300    2.7220    2.5460 hn        1 MOL      0.220657
     50 H22         1.9660    0.9970    1.2620 h1        1 MOL      0.277003
     51 H23         0.5480   -0.6580    0.5590 hc        1 MOL      0.161850
     52 H24        -0.8360    0.4450    0.7090 hc        1 MOL      0.161850
     53 N5          2.3540    2.0280   -1.2460 n         1 MOL     -0.338816
     54 C17         3.5410    2.6530   -0.7100 c3        1 MOL      0.112529
     55 C18         4.3810    3.3620   -1.7310 c         1 MOL      0.572526
     56 O9          4.2330    3.2680   -2.9560 o         1 MOL     -0.555374
     57 H25         2.3580    2.0500   -2.2570 hn        1 MOL      0.249369
     58 H26         4.1140    1.9940   -0.0480 h1        1 MOL     -0.017255
     59 H27         3.0800    3.3590   -0.0150 h1        1 MOL     -0.017255
     60 N6          5.3560    4.1590   -1.3220 n         1 MOL     -0.443101
     61 C19         5.9010    4.4360    0.0240 c3        1 MOL      0.012832
     62 C20         6.9600    3.4780    0.5740 c         1 MOL      0.715349
     63 O10         7.8700    3.0330   -0.1020 o         1 MOL     -0.489118
     64 C21         6.4190    5.8800    0.1470 c3        1 MOL     -0.280476
     65 C22         7.4640    6.4170   -0.8960 c         1 MOL      0.703273
     66 O11         8.3070    7.3130   -0.6590 o         1 MOL     -0.624425
     67 O12         7.4830    5.8980   -2.0300 o         1 MOL     -0.624425
     68 H28         5.8330    4.6100   -2.0850 hn        1 MOL      0.301522
     69 H29         5.0930    4.4200    0.7590 h1        1 MOL      0.021449
     70 H30         6.8180    6.0140    1.1430 hc        1 MOL      0.052424
     71 H31         5.5280    6.5080    0.0330 hc        1 MOL      0.052424
     72 N7          6.7860    3.1110    1.8400 n         1 MOL     -0.470723
     73 C23         7.4390    1.9420    2.4800 c3        1 MOL     -0.164088
     74 C24         6.9840    0.6140    1.8610 c         1 MOL      0.538817
     75 O13         7.6920    0.1160    1.0030 o         1 MOL     -0.481292
     76 H32         5.9090    3.4270    2.2330 hn        1 MOL      0.261457
     77 H33         7.1400    2.0000    3.5290 h1        1 MOL      0.111905
     78 H34         8.5320    1.9910    2.4930 h1        1 MOL      0.111905
     79 N8          5.7660    0.1000    2.1880 n         1 MOL     -0.571671
     80 C25         5.1730   -1.1910    1.7190 c3        1 MOL     -0.072430
     81 C26         5.3330   -1.4420    0.2190 c         1 MOL      0.815481
     82 O14         4.9190   -0.6570   -0.6540 o         1 MOL     -0.492099
     83 C27         3.7310   -1.4170    2.2310 c3        1 MOL      0.554326
     84 C28         3.5670   -1.1470    3.7540 c3        1 MOL     -0.118307
     85 O15         3.4320   -2.8340    2.0330 oh        1 MOL     -0.789507
     86 H35         5.2320    0.6030    2.8780 hn        1 MOL      0.319152
     87 H36         5.7430   -2.0240    2.1580 h1        1 MOL      0.081636
     88 H37         3.0380   -0.8490    1.6200 h1        1 MOL     -0.148604
     89 H38         2.4800   -2.8990    2.1480 ho        1 MOL      0.543160
     90 H39         4.3570   -1.7430    4.2010 hc        1 MOL     -0.002163
     91 H40         3.6810   -0.0760    3.9370 hc        1 MOL     -0.002163
     92 H41         2.5660   -1.4650    4.0450 hc        1 MOL     -0.002163
     93 N9          5.8760   -2.6540   -0.0440 n         1 MOL     -0.692466
     94 C29         5.8640   -3.2870   -1.4050 c3        1 MOL     -0.369226
     95 C30         4.4430   -3.6090   -1.9330 c         1 MOL      0.557635
     96 O16         4.1110   -3.5350   -3.1570 o         1 MOL     -0.514819
     97 C31         6.8710   -4.4570   -1.4140 c3        1 MOL      0.384739
     98 C32         8.3120   -4.0210   -1.1980 c3        1 MOL     -0.082716
     99 C33         6.6380   -5.3340   -2.6560 c3        1 MOL     -0.379060
    100 C34         9.3950   -5.0270   -1.6500 c3        1 MOL     -0.057771
    101 H42         6.1480   -3.1980    0.7560 hn        1 MOL      0.345036
    102 H43         6.2830   -2.5010   -2.0290 h1        1 MOL      0.206144
    103 H44         6.6050   -5.0580   -0.5300 hc        1 MOL     -0.048785
    104 H45         8.4750   -3.9460   -0.1160 hc        1 MOL      0.053915
    105 H46         8.4750   -3.0770   -1.7160 hc        1 MOL      0.053915
    106 H47         6.5030   -4.6060   -3.4660 hc        1 MOL      0.098816
    107 H48         7.4090   -6.0840   -2.8130 hc        1 MOL      0.098816
    108 H49         5.7180   -5.9190   -2.6140 hc        1 MOL      0.098816
    109 H50        10.3370   -4.8200   -1.1400 hc        1 MOL      0.008863
    110 H51         9.0700   -5.9630   -1.1900 hc        1 MOL      0.008863
    111 H52         9.5380   -5.1260   -2.7240 hc        1 MOL      0.008863
    112 N10         3.6400   -4.0590   -0.9610 n         1 MOL     -0.422837
    113 C35         2.3080   -4.5500   -1.1930 c3        1 MOL      0.037064
    114 C36         1.1080   -3.6430   -0.8050 c         1 MOL      0.586742
    115 O17         1.1560   -2.9360    0.2140 o         1 MOL     -0.578854
    116 C37         2.1930   -5.9380   -0.5720 c3        1 MOL      0.344557
    117 C38         2.4730   -6.1050    0.9290 c3        1 MOL     -0.400329
    118 O18         3.0890   -6.6360   -1.3620 oh        1 MOL     -0.638647
    119 H53         4.0070   -4.0550   -0.0150 hn        1 MOL      0.351418
    120 H54         2.2750   -4.6940   -2.2780 h1        1 MOL      0.105235
    121 H55         1.1870   -6.3050   -0.8150 h1        1 MOL     -0.001981
    122 H56         3.1030   -7.5250   -1.0170 ho        1 MOL      0.401650
    123 H57         3.5070   -5.9600    1.2380 hc        1 MOL      0.104708
    124 H58         1.9880   -5.2800    1.4610 hc        1 MOL      0.104708
    125 H59         2.0430   -7.0660    1.2100 hc        1 MOL      0.104708
    126 N11        -0.0370   -3.8190   -1.4770 n         1 MOL     -0.618762
    127 C39        -1.2340   -2.9700   -1.4250 c3        1 MOL      0.313477
    128 C40        -2.5280   -3.8260   -1.5580 c         1 MOL      0.595252
    129 O19        -2.3990   -4.9510   -1.9680 o         1 MOL     -0.544559
    130 C41        -1.2030   -1.8650   -2.5730 c3        1 MOL      0.408785
    131 C42        -1.6170   -2.3630   -3.8800 c3        1 MOL     -0.373130
    132 O20         0.1360   -1.3740   -2.7020 oh        1 MOL     -0.524527
    133 H60        -0.0760   -4.5650   -2.1650 hn        1 MOL      0.289598
    134 H61        -1.3690   -2.3820   -0.5290 h1        1 MOL     -0.089789
    135 H62        -1.8980   -1.1000   -2.2310 h1        1 MOL     -0.032722
    136 H63         0.1660   -0.5470   -2.2080 ho        1 MOL      0.289283
    137 H64        -1.2830   -3.3740   -4.1480 hc        1 MOL      0.081629
    138 H65        -2.7000   -2.4220   -3.8160 hc        1 MOL      0.081629
    139 H66        -1.2370   -1.5870   -4.5540 hc        1 MOL      0.081629
    140 N12        -3.7120   -3.2450   -1.3080 n         1 MOL     -0.549355
    141 C43        -5.1150   -3.8240   -1.4190 c3        1 MOL     -0.059512
    142 C44        -6.1740   -3.2880   -0.4270 c         1 MOL      0.597862
    143 O21        -7.3630   -3.5760   -0.6180 o         1 MOL     -0.537123
    144 C45        -5.5720   -3.7680   -2.8860 c3        1 MOL      0.058975
    145 C46        -5.6610   -2.3690   -3.4370 c3        1 MOL     -0.117139
    146 C47        -6.3470   -2.4220   -4.8130 c3        1 MOL      0.266655
    147 C48        -6.4860   -1.0830   -5.5730 c3        1 MOL     -0.270633
    148 N13        -5.1680   -0.2730   -5.8260 n4        1 MOL     -0.168771
    149 H67        -3.6360   -2.2690   -1.0600 hn        1 MOL      0.283918
    150 H68        -4.9930   -4.8880   -1.2520 h1        1 MOL      0.143902
    151 H69        -6.4530   -4.3930   -3.0580 hc        1 MOL      0.013814
    152 H70        -4.8320   -4.2220   -3.5500 hc        1 MOL      0.013814
    153 H71        -4.6500   -1.9940   -3.5760 hc        1 MOL      0.017727
    154 H72        -6.3530   -1.7310   -2.8750 hc        1 MOL      0.017727
    155 H73        -7.3330   -2.8790   -4.9200 hc        1 MOL     -0.016270
    156 H74        -5.7590   -3.1070   -5.4280 hc        1 MOL     -0.016270
    157 H75        -7.0480   -0.4470   -4.8970 hx        1 MOL      0.158218
    158 H76        -7.0250   -1.3040   -6.4980 hx        1 MOL      0.158218
    159 H77        -4.7630   -0.1770   -4.9030 hn        1 MOL      0.230753
    160 H78        -4.5310   -0.7220   -6.4690 hn        1 MOL      0.230753
    161 H79        -5.5100    0.5830   -6.2400 hn        1 MOL      0.230753
    162 N14        -5.7660   -2.6360    0.6620 n         1 MOL     -0.486682
    163 C49        -6.6110   -1.8930    1.6600 c3        1 MOL     -0.085443
    164 C50        -7.2260   -0.5650    1.0870 c         1 MOL      0.489723
    165 O22        -6.6270    0.0440    0.2280 o         1 MOL     -0.471539
    166 C51        -5.8880   -1.5110    2.9780 c3        1 MOL     -0.135673
    167 C52        -5.5150   -2.5900    3.8900 c3        1 MOL      0.359468
    168 C53        -4.2280   -2.2790    4.6640 c         1 MOL      0.519142
    169 O23        -4.2070   -1.2560    5.3320 o         1 MOL     -0.742874
    170 O24        -3.1820   -2.8010    4.2890 o         1 MOL     -0.742874
    171 H80        -4.7830   -2.6940    0.9020 hn        1 MOL      0.349813
    172 H81        -7.4620   -2.5050    1.9640 h1        1 MOL      0.076244
    173 H82        -6.5030   -0.8510    3.5980 hc        1 MOL      0.040278
    174 H83        -4.9440   -1.0620    2.6450 hc        1 MOL      0.040278
    175 H84        -5.2400   -3.5020    3.3510 hc        1 MOL     -0.082782
    176 H85        -6.3210   -2.9090    4.5440 hc        1 MOL     -0.082782
    177 N15        -8.4620   -0.2850    1.4880 n         1 MOL     -0.219082
    178 C54        -9.2530    0.7700    1.0100 c3        1 MOL     -0.386035
    179 H86       -10.2600    0.6820    1.4170 h1        1 MOL      0.148774
    180 H87        -8.8190    1.7200    1.3210 h1        1 MOL      0.148774
    181 H88        -9.2960    0.7290   -0.0790 h1        1 MOL      0.148774
    182 H89        -8.9140   -1.0330    1.9930 hn        1 MOL      0.257179
    183 Ca1        -1.6770   -0.5230    5.3270 Ca        1 MOL      1.749102
    184 O25        -0.4650   -3.0880    5.5870 oh        1 MOL     -0.909639
    185 H90        -0.2500   -3.9640    5.2770 ho        1 MOL      0.443810
    186 H91        -0.6270   -3.2060    6.5280 ho        1 MOL      0.443810
    187 O26        -2.5010    1.3090    3.5260 oh        1 MOL     -0.909639
    188 H92        -2.5280    1.1880    2.5700 ho        1 MOL      0.443810
    189 H93        -2.2640    2.2290    3.6450 ho        1 MOL      0.443810
    190 O27         0.6090    0.0980    6.5810 oh        1 MOL     -0.909639
    191 H94         1.1830    0.8580    6.5380 ho        1 MOL      0.443810
    192 H95         1.1750   -0.6150    6.9000 ho        1 MOL      0.443810
@<TRIPOS>BOND
     1    1    2 1   
     2    1    4 1   
     3    1    5 1   
     4    1    6 1   
     5    2    3 2   
     6    2    7 1   
     7    7    8 1   
     8    7   15 1   
     9    8    9 1   
    10    8   11 1   
    11    8   16 1   
    12    9   10 2   
    13    9   19 1   
    14   11   12 1   
    15   11   17 1   
    16   11   18 1   
    17   12   13 1   
    18   12   14 1   
    19   19   20 1   
    20   19   28 1   
    21   20   21 1   
    22   20   23 1   
    23   20   29 1   
    24   21   22 2   
    25   21   41 1   
    26   23   24 1   
    27   23   30 1   
    28   23   31 1   
    29   24   25 1   
    30   24   32 1   
    31   24   33 1   
    32   25   26 1   
    33   25   34 1   
    34   25   35 1   
    35   26   27 1   
    36   26   36 1   
    37   26   37 1   
    38   27   38 1   
    39   27   39 1   
    40   27   40 1   
    41   41   42 1   
    42   41   49 1   
    43   42   43 1   
    44   42   45 1   
    45   42   50 1   
    46   43   44 2   
    47   43   53 1   
    48   45   46 1   
    49   45   51 1   
    50   45   52 1   
    51   46   47 1   
    52   46   48 1   
    53   53   54 1   
    54   53   57 1   
    55   54   55 1   
    56   54   58 1   
    57   54   59 1   
    58   55   56 2   
    59   55   60 1   
    60   60   61 1   
    61   60   68 1   
    62   61   62 1   
    63   61   64 1   
    64   61   69 1   
    65   62   63 2   
    66   62   72 1   
    67   64   65 1   
    68   64   70 1   
    69   64   71 1   
    70   65   66 1   
    71   65   67 1   
    72   72   73 1   
    73   72   76 1   
    74   73   74 1   
    75   73   77 1   
    76   73   78 1   
    77   74   75 2   
    78   74   79 1   
    79   79   80 1   
    80   79   86 1   
    81   80   81 1   
    82   80   83 1   
    83   80   87 1   
    84   81   82 2   
    85   81   93 1   
    86   83   84 1   
    87   83   85 1   
    88   83   88 1   
    89   84   90 1   
    90   84   91 1   
    91   84   92 1   
    92   85   89 1   
    93   93   94 1   
    94   93  101 1   
    95   94   95 1   
    96   94   97 1   
    97   94  102 1   
    98   95   96 2   
    99   95  112 1   
   100   97   98 1   
   101   97   99 1   
   102   97  103 1   
   103   98  100 1   
   104   98  104 1   
   105   98  105 1   
   106   99  106 1   
   107   99  107 1   
   108   99  108 1   
   109  100  109 1   
   110  100  110 1   
   111  100  111 1   
   112  112  113 1   
   113  112  119 1   
   114  113  114 1   
   115  113  116 1   
   116  113  120 1   
   117  114  115 2   
   118  114  126 1   
   119  116  117 1   
   120  116  118 1   
   121  116  121 1   
   122  117  123 1   
   123  117  124 1   
   124  117  125 1   
   125  118  122 1   
   126  126  127 1   
   127  126  133 1   
   128  127  128 1   
   129  127  130 1   
   130  127  134 1   
   131  128  129 2   
   132  128  140 1   
   133  130  131 1   
   134  130  132 1   
   135  130  135 1   
   136  131  137 1   
   137  131  138 1   
   138  131  139 1   
   139  132  136 1   
   140  140  141 1   
   141  140  149 1   
   142  141  142 1   
   143  141  144 1   
   144  141  150 1   
   145  142  143 2   
   146  142  162 1   
   147  144  145 1   
   148  144  151 1   
   149  144  152 1   
   150  145  146 1   
   151  145  153 1   
   152  145  154 1   
   153  146  147 1   
   154  146  155 1   
   155  146  156 1   
   156  147  148 1   
   157  147  157 1   
   158  147  158 1   
   159  148  159 1   
   160  148  160 1   
   161  148  161 1   
   162  162  163 1   
   163  162  171 1   
   164  163  164 1   
   165  163  166 1   
   166  163  172 1   
   167  164  165 2   
   168  164  177 1   
   169  166  167 1   
   170  166  173 1   
   171  166  174 1   
   172  167  168 1   
   173  167  175 1   
   174  167  176 1   
   175  168  169 1   
   176  168  170 1   
   177  177  178 1   
   178  177  182 1   
   179  178  179 1   
   180  178  180 1   
   181  178  181 1   
   182  184  185 1   
   183  184  186 1   
   184  187  188 1   
   185  187  189 1   
   186  190  191 1   
   187  190  192 1   
@<TRIPOS>SUBSTRUCTURE
     1 MOL         1 TEMP              0 ****  ****    0 ROOT
