@<TRIPOS>MOLECULE
MOL
  181   177     1     0     0
SMALL
resp


@<TRIPOS>ATOM
      1 C1          0.2280    7.0050   -2.2100 c3        1 MOL     -0.476172
      2 C2          1.6250    6.8810   -1.5040 c         1 MOL      0.715752
      3 O1          1.8650    7.5510   -0.5140 o         1 MOL     -0.576251
      4 H1          0.0920    8.0240   -2.5700 hc        1 MOL      0.115947
      5 H2          0.1830    6.3130   -3.0520 hc        1 MOL      0.115947
      6 H3         -0.5620    6.7630   -1.4990 hc        1 MOL      0.115947
      7 N1          2.5840    6.2000   -2.1280 n         1 MOL     -0.536433
      8 C3          3.9430    5.9900   -1.5340 c3        1 MOL      0.077718
      9 C4          3.8660    4.9370   -0.3870 c         1 MOL      0.571434
     10 O2          2.9690    4.0860   -0.3140 o         1 MOL     -0.561400
     11 C5          4.8850    5.5180   -2.6620 c3        1 MOL     -0.121150
     12 C6          6.3530    5.3320   -2.2460 c         1 MOL      0.664733
     13 O3          6.9290    6.0380   -1.3460 o         1 MOL     -0.702174
     14 O4          6.9810    4.4280   -2.8380 o         1 MOL     -0.702174
     15 H4          2.4850    5.6660   -2.9800 hn        1 MOL      0.283912
     16 H5          4.2910    6.9800   -1.2090 h1        1 MOL      0.057517
     17 H6          4.9220    6.2690   -3.4600 hc        1 MOL      0.013934
     18 H7          4.5140    4.6010   -3.1370 hc        1 MOL      0.013934
     19 N2          4.9020    4.9930    0.5110 n         1 MOL     -0.393528
     20 C7          5.1670    4.0460    1.6520 c3        1 MOL      0.167046
     21 C8          3.9430    3.8760    2.5950 c         1 MOL      0.383288
     22 O5          3.1970    4.8320    2.8600 o         1 MOL     -0.517486
     23 C9          6.3570    4.5700    2.4210 c3        1 MOL     -0.251042
     24 H8          5.5180    5.7630    0.3260 hn        1 MOL      0.215897
     25 H9          5.4690    3.0860    1.2300 h1        1 MOL      0.081198
     26 H10         6.1890    5.3810    3.1180 hc        1 MOL      0.071295
     27 H11         6.8970    3.8590    3.0410 hc        1 MOL      0.071295
     28 H12         7.0500    5.0890    1.7620 hc        1 MOL      0.071295
     29 N3          3.6940    2.6790    3.1870 n         1 MOL     -0.298698
     30 C10         4.5280    1.5470    3.5050 c3        1 MOL      0.048797
     31 C11         4.6940    0.5030    2.3330 c         1 MOL      0.311571
     32 O6          3.7550    0.4590    1.4600 o         1 MOL     -0.405532
     33 C12         3.8920    0.8290    4.6980 c3        1 MOL     -0.225562
     34 C13         2.4200    0.4590    4.5940 c         1 MOL      0.718804
     35 O7          1.7800    0.1430    5.6250 o         1 MOL     -0.696619
     36 O8          1.9180    0.4870    3.4710 o         1 MOL     -0.696619
     37 H13         2.8760    2.7240    3.7720 hn        1 MOL      0.277514
     38 H14         5.5380    1.8740    3.7650 h1        1 MOL      0.040247
     39 H15         3.9620    1.5960    5.4680 hc        1 MOL      0.032987
     40 H16         4.5320   -0.0230    4.9390 hc        1 MOL      0.032987
     41 N4          5.8110   -0.1960    2.2910 n         1 MOL     -0.254680
     42 C14         6.1190   -1.2820    1.2790 c3        1 MOL     -0.124822
     43 C15         7.3510   -0.9340    0.4090 c         1 MOL      0.776360
     44 O9          7.8820    0.1340    0.5570 o         1 MOL     -0.547209
     45 H17         6.5640    0.0030    2.9370 hn        1 MOL      0.230753
     46 H18         5.2410   -1.4390    0.6640 h1        1 MOL      0.053135
     47 H19         6.4180   -2.0860    1.9610 h1        1 MOL      0.053135
     48 N5          7.8160   -1.7910   -0.4720 n         1 MOL     -0.832659
     49 C16         7.1640   -3.0760   -0.9100 c3        1 MOL      0.505980
     50 C17         5.8290   -2.9050   -1.6360 c         1 MOL      0.476388
     51 O10         5.2300   -1.8730   -1.8960 o         1 MOL     -0.418139
     52 C18         8.2300   -3.9020   -1.6600 c3        1 MOL     -0.312630
     53 C19         8.4000   -3.4390   -3.0320 c         1 MOL      0.722993
     54 N6          7.9250   -4.2670   -3.9810 n         1 MOL     -0.830413
     55 O11         9.0320   -2.3930   -3.2360 o         1 MOL     -0.512075
     56 H20         8.6570   -1.4800   -0.9310 hn        1 MOL      0.378993
     57 H21         6.8660   -3.6570   -0.0360 h1        1 MOL     -0.048365
     58 H22         7.9440   -4.9490   -1.5460 hc        1 MOL      0.057800
     59 H23         9.2200   -3.8090   -1.2170 hc        1 MOL      0.057800
     60 H24         7.4740   -5.1060   -3.6480 hn        1 MOL      0.374347
     61 H25         7.9770   -4.1380   -4.9790 hn        1 MOL      0.374347
     62 N7          5.3580   -4.1050   -1.9820 n         1 MOL     -0.575661
     63 C20         4.3570   -4.2200   -3.0580 c3        1 MOL     -0.129837
     64 C21         2.9040   -4.2730   -2.5540 c         1 MOL      0.443184
     65 O12         1.9400   -3.9610   -3.2010 o         1 MOL     -0.524659
     66 H26         5.9290   -4.9170   -1.8000 hn        1 MOL      0.307066
     67 H27         4.5920   -5.1280   -3.5950 h1        1 MOL      0.121196
     68 H28         4.4520   -3.4290   -3.8010 h1        1 MOL      0.121196
     69 N8          2.7140   -4.7230   -1.3340 n         1 MOL     -0.220260
     70 C22         1.4850   -5.0970   -0.6230 c3        1 MOL     -0.034241
     71 C23         0.3570   -4.0350   -0.7010 c         1 MOL      0.489681
     72 O13         0.5300   -2.9070   -0.1890 o         1 MOL     -0.525745
     73 C24         1.7490   -5.3070    0.8520 c3        1 MOL      0.159529
     74 C25         0.4810   -5.6820    1.7590 c3        1 MOL     -0.109831
     75 O14         2.5950   -6.3930    1.0520 oh        1 MOL     -0.642793
     76 H29         3.5280   -5.0200   -0.8180 hn        1 MOL      0.215679
     77 H30         1.1200   -6.0260   -1.0630 h1        1 MOL      0.064663
     78 H31         2.2710   -4.4200    1.2110 h1        1 MOL      0.037720
     79 H32         2.2580   -6.8020    1.8400 ho        1 MOL      0.394394
     80 H33         0.7540   -6.2270    2.6650 hc        1 MOL      0.056439
     81 H34        -0.0750   -4.7690    1.9570 hc        1 MOL      0.056439
     82 H35        -0.1380   -6.3690    1.1960 hc        1 MOL      0.056439
     83 N9         -0.8620   -4.5260   -1.0120 n         1 MOL     -0.433591
     84 C26        -2.0880   -3.7190   -0.8950 c3        1 MOL     -0.080911
     85 C27        -2.5430   -3.7830    0.6080 c         1 MOL      0.233112
     86 O15        -2.6920   -4.8430    1.1760 o         1 MOL     -0.504974
     87 C28        -3.1880   -4.2010   -1.9000 c3        1 MOL      0.182825
     88 C29        -4.5700   -3.5040   -1.6890 c3        1 MOL     -0.039841
     89 C30        -2.5600   -4.0070   -3.3350 c3        1 MOL     -0.400578
     90 C31        -5.6500   -3.9290   -2.6050 c3        1 MOL     -0.116493
     91 H36        -1.0070   -5.5160   -1.1650 hn        1 MOL      0.302645
     92 H37        -1.7190   -2.7310   -1.1640 h1        1 MOL      0.234416
     93 H38        -3.2970   -5.2830   -1.7520 hc        1 MOL      0.002773
     94 H39        -4.3720   -2.4510   -1.8960 hc        1 MOL      0.052686
     95 H40        -4.9180   -3.5830   -0.6660 hc        1 MOL      0.052686
     96 H41        -3.2860   -3.9920   -4.1580 hc        1 MOL      0.099991
     97 H42        -1.9330   -3.1210   -3.3340 hc        1 MOL      0.099991
     98 H43        -1.8490   -4.8230   -3.4980 hc        1 MOL      0.099991
     99 H44        -5.8990   -4.9770   -2.4040 hc        1 MOL      0.017580
    100 H45        -6.5380   -3.3130   -2.5220 hc        1 MOL      0.017580
    101 H46        -5.3750   -3.9290   -3.6630 hc        1 MOL      0.017580
    102 N10        -2.8720   -2.6180    1.1970 n         1 MOL      0.060054
    103 C32        -3.6430   -2.4720    2.4770 c3        1 MOL     -0.010948
    104 C33        -4.9920   -1.7000    2.4170 c         1 MOL      0.396883
    105 O16        -5.7940   -1.8220    3.3770 o         1 MOL     -0.554899
    106 C34        -2.8350   -1.8370    3.6030 c3        1 MOL      0.110066
    107 C35        -1.3280   -2.3100    3.6060 c         1 MOL      0.502067
    108 O17        -0.5860   -1.8720    2.6720 o         1 MOL     -0.631457
    109 O18        -0.9000   -3.1630    4.4280 o         1 MOL     -0.631457
    110 H47        -2.6510   -1.7370    0.7610 hn        1 MOL      0.092273
    111 H48        -3.8600   -3.5080    2.7400 h1        1 MOL      0.076465
    112 H49        -3.3990   -1.9980    4.5300 hc        1 MOL     -0.035713
    113 H50        -2.7690   -0.7770    3.3630 hc        1 MOL     -0.035713
    114 N11        -5.2780   -1.0630    1.3050 n         1 MOL     -0.399603
    115 C36        -6.5410   -0.2020    1.1410 c3        1 MOL      0.641335
    116 C37        -6.2920    1.1970    0.5090 c         1 MOL      0.150851
    117 O19        -6.9030    1.5510   -0.5010 o         1 MOL     -0.417607
    118 C38        -7.5120   -1.0330    0.3120 c3        1 MOL     -0.481543
    119 C39        -8.9030   -0.4860    0.2010 ca        1 MOL      0.269518
    120 C40        -9.3900    0.4580    1.1270 ca        1 MOL     -0.237799
    121 C41        -9.6640   -1.0340   -0.8430 ca        1 MOL     -0.237799
    122 C42       -10.6910    1.0140    0.9370 ca        1 MOL     -0.126649
    123 C43       -10.9810   -0.4490   -1.0330 ca        1 MOL     -0.126649
    124 C44       -11.4320    0.5570   -0.1750 ca        1 MOL     -0.115553
    125 H51        -4.5760   -1.0590    0.5810 hn        1 MOL      0.130272
    126 H52        -6.8860   -0.0580    2.1700 h1        1 MOL     -0.064318
    127 H53        -7.5840   -2.0350    0.7220 hc        1 MOL      0.128390
    128 H54        -7.1550   -1.1470   -0.7160 hc        1 MOL      0.128390
    129 H55        -8.7700    0.9320    1.8690 ha        1 MOL      0.148503
    130 H56        -9.2620   -1.8440   -1.4170 ha        1 MOL      0.148503
    131 H57       -11.0300    1.9150    1.4370 ha        1 MOL      0.111905
    132 H58       -11.6020   -0.8370   -1.8310 ha        1 MOL      0.111905
    133 H59       -12.3740    1.0000   -0.4610 ha        1 MOL      0.086465
    134 N12        -5.2740    1.9460    0.9890 n         1 MOL      0.040285
    135 C45        -5.0580    3.3340    0.5470 c3        1 MOL     -0.232101
    136 C46        -4.6240    3.4470   -0.8890 c         1 MOL      0.348109
    137 O20        -4.5400    4.5030   -1.4400 o         1 MOL     -0.491383
    138 C47        -4.0370    3.9080    1.4980 c3        1 MOL      0.099763
    139 C48        -4.2120    3.1130    2.7490 c3        1 MOL     -0.205779
    140 C49        -4.4890    1.6960    2.2010 c3        1 MOL     -0.045510
    141 H60        -5.9190    3.9930    0.6200 h1        1 MOL      0.127435
    142 H61        -3.0280    3.6940    1.1660 hc        1 MOL      0.041380
    143 H62        -4.0880    4.9540    1.8080 hc        1 MOL      0.041380
    144 H63        -3.2760    3.1610    3.3170 hc        1 MOL      0.069452
    145 H64        -5.0580    3.4050    3.3720 hc        1 MOL      0.069452
    146 H65        -3.5520    1.1480    2.0680 h1        1 MOL      0.055813
    147 H66        -5.1300    1.1990    2.9290 h1        1 MOL      0.055813
    148 N13        -4.2250    2.2790   -1.4500 n         1 MOL     -0.135035
    149 C50        -3.9500    2.1900   -2.9000 c3        1 MOL     -0.170877
    150 C51        -5.2450    2.4760   -3.6890 c         1 MOL      0.544664
    151 O21        -5.2200    3.1480   -4.6950 o         1 MOL     -0.567485
    152 C52        -3.2530    0.8380   -3.1960 c3        1 MOL     -0.046523
    153 C53        -1.9950    0.3870   -2.3600 c3        1 MOL      0.041339
    154 C54        -2.2320   -0.0610   -0.9560 c         1 MOL      0.520604
    155 O22        -1.2410   -0.2060   -0.2000 o         1 MOL     -0.695606
    156 O23        -3.4470   -0.2800   -0.6140 o         1 MOL     -0.695606
    157 H67        -4.1710    1.4870   -0.8220 hn        1 MOL      0.301617
    158 H68        -3.2680    2.9970   -3.1430 h1        1 MOL      0.109299
    159 H69        -2.9300    0.8660   -4.2380 hc        1 MOL      0.008055
    160 H70        -3.9900    0.0350   -3.1040 hc        1 MOL      0.008055
    161 H71        -1.2620    1.1830   -2.3760 hc        1 MOL      0.022547
    162 H72        -1.5170   -0.4530   -2.8680 hc        1 MOL      0.022547
    163 N14        -6.3910    1.9430   -3.2700 n         1 MOL     -0.190458
    164 C55        -7.7170    2.2160   -3.8800 c3        1 MOL     -0.227469
    165 H73        -7.7610    3.2570   -4.2000 h1        1 MOL      0.094575
    166 H74        -7.8620    1.5650   -4.7420 h1        1 MOL      0.094575
    167 H75        -8.5010    2.0280   -3.1460 h1        1 MOL      0.094575
    168 H76        -6.3240    1.4320   -2.4000 hn        1 MOL      0.167560
    169 Ca1         0.9470   -0.5860    1.2390 Ca        1 MOL      1.587555
    170 O24        -0.9310    1.6730    1.8560 oh        1 MOL     -0.771853
    171 H77        -1.0160    1.5640    2.8030 ho        1 MOL      0.393675
    172 H78        -1.5880    1.0820    1.4920 ho        1 MOL      0.393675
    173 O25         1.5400    1.7940    0.3920 oh        1 MOL     -0.771853
    174 H79         0.7720    2.2470    0.7530 ho        1 MOL      0.393675
    175 H80         2.0840    2.4980    0.0440 ho        1 MOL      0.393675
    176 O26         2.0340   -0.9310   -1.2450 oh        1 MOL     -0.771853
    177 H81         2.2920   -1.8190   -1.4730 ho        1 MOL      0.393675
    178 H82         2.0850   -0.4390   -2.0690 ho        1 MOL      0.393675
    179 O27         2.7490   -2.3360    2.0450 oh        1 MOL     -0.771853
    180 H83         3.6480   -2.6010    1.8250 ho        1 MOL      0.393675
    181 H84         2.5680   -2.7880    2.8680 ho        1 MOL      0.393675
@<TRIPOS>BOND
     1    1    2 1   
     2    1    4 1   
     3    1    5 1   
     4    1    6 1   
     5    2    3 2   
     6    2    7 1   
     7    7    8 1   
     8    7   15 1   
     9    8    9 1   
    10    8   11 1   
    11    8   16 1   
    12    9   10 2   
    13    9   19 1   
    14   11   12 1   
    15   11   17 1   
    16   11   18 1   
    17   12   13 1   
    18   12   14 1   
    19   19   20 1   
    20   19   24 1   
    21   20   21 1   
    22   20   23 1   
    23   20   25 1   
    24   21   22 2   
    25   21   29 1   
    26   23   26 1   
    27   23   27 1   
    28   23   28 1   
    29   29   30 1   
    30   29   37 1   
    31   30   31 1   
    32   30   33 1   
    33   30   38 1   
    34   31   32 2   
    35   31   41 1   
    36   33   34 1   
    37   33   39 1   
    38   33   40 1   
    39   34   35 1   
    40   34   36 1   
    41   41   42 1   
    42   41   45 1   
    43   42   43 1   
    44   42   46 1   
    45   42   47 1   
    46   43   44 2   
    47   43   48 1   
    48   48   49 1   
    49   48   56 1   
    50   49   50 1   
    51   49   52 1   
    52   49   57 1   
    53   50   51 2   
    54   50   62 1   
    55   52   53 1   
    56   52   58 1   
    57   52   59 1   
    58   53   54 1   
    59   53   55 2   
    60   54   60 1   
    61   54   61 1   
    62   62   63 1   
    63   62   66 1   
    64   63   64 1   
    65   63   67 1   
    66   63   68 1   
    67   64   65 2   
    68   64   69 1   
    69   69   70 1   
    70   69   76 1   
    71   70   71 1   
    72   70   73 1   
    73   70   77 1   
    74   71   72 2   
    75   71   83 1   
    76   73   74 1   
    77   73   75 1   
    78   73   78 1   
    79   74   80 1   
    80   74   81 1   
    81   74   82 1   
    82   75   79 1   
    83   83   84 1   
    84   83   91 1   
    85   84   85 1   
    86   84   87 1   
    87   84   92 1   
    88   85   86 2   
    89   85  102 1   
    90   87   88 1   
    91   87   89 1   
    92   87   93 1   
    93   88   90 1   
    94   88   94 1   
    95   88   95 1   
    96   89   96 1   
    97   89   97 1   
    98   89   98 1   
    99   90   99 1   
   100   90  100 1   
   101   90  101 1   
   102  102  103 1   
   103  102  110 1   
   104  103  104 1   
   105  103  106 1   
   106  103  111 1   
   107  104  105 2   
   108  104  114 1   
   109  106  107 1   
   110  106  112 1   
   111  106  113 1   
   112  107  108 1   
   113  107  109 1   
   114  114  115 1   
   115  114  125 1   
   116  115  116 1   
   117  115  118 1   
   118  115  126 1   
   119  116  117 2   
   120  116  134 1   
   121  118  119 1   
   122  118  127 1   
   123  118  128 1   
   124  119  120 ar  
   125  119  121 ar  
   126  120  122 ar  
   127  120  129 1   
   128  121  123 ar  
   129  121  130 1   
   130  122  124 ar  
   131  122  131 1   
   132  123  124 ar  
   133  123  132 1   
   134  124  133 1   
   135  134  135 1   
   136  134  140 1   
   137  135  136 1   
   138  135  138 1   
   139  135  141 1   
   140  136  137 2   
   141  136  148 1   
   142  138  139 1   
   143  138  142 1   
   144  138  143 1   
   145  139  140 1   
   146  139  144 1   
   147  139  145 1   
   148  140  146 1   
   149  140  147 1   
   150  148  149 1   
   151  148  157 1   
   152  149  150 1   
   153  149  152 1   
   154  149  158 1   
   155  150  151 2   
   156  150  163 1   
   157  152  153 1   
   158  152  159 1   
   159  152  160 1   
   160  153  154 1   
   161  153  161 1   
   162  153  162 1   
   163  154  155 1   
   164  154  156 1   
   165  163  164 1   
   166  163  168 1   
   167  164  165 1   
   168  164  166 1   
   169  164  167 1   
   170  170  171 1   
   171  170  172 1   
   172  173  174 1   
   173  173  175 1   
   174  176  177 1   
   175  176  178 1   
   176  179  180 1   
   177  179  181 1   
@<TRIPOS>SUBSTRUCTURE
     1 MOL         1 TEMP              0 ****  ****    0 ROOT
