@<TRIPOS>MOLECULE
MOL
  181   177     1     0     0
SMALL
resp


@<TRIPOS>ATOM
      1 C1          1.5450   -1.1650    4.4170 c3        1 MOL     -0.316125
      2 C2          2.5390   -0.2710    3.7280 c         1 MOL      0.637141
      3 O1          2.2430    0.5310    2.8290 o         1 MOL     -0.528810
      4 H1          2.0720   -1.8490    5.0820 hc        1 MOL      0.075178
      5 H2          0.8510   -0.5570    4.9980 hc        1 MOL      0.075178
      6 H3          0.9920   -1.7370    3.6710 hc        1 MOL      0.075178
      7 N1          3.8140   -0.4490    4.0930 n         1 MOL     -0.455754
      8 C3          5.0080    0.1900    3.4890 c3        1 MOL      0.074431
      9 C4          5.5180   -0.6980    2.3630 c         1 MOL      0.372710
     10 O2          6.0820   -0.1120    1.3760 o         1 MOL     -0.494085
     11 C5          6.0430    0.3960    4.6030 c3        1 MOL     -0.178081
     12 C6          7.4900    0.6590    4.0620 c         1 MOL      0.739830
     13 O3          8.3700   -0.1580    4.4080 o         1 MOL     -0.724028
     14 O4          7.7410    1.7300    3.4030 o         1 MOL     -0.724028
     15 H4          3.9720   -1.0040    4.9170 hn        1 MOL      0.255326
     16 H5          4.6510    1.1240    3.0620 h1        1 MOL      0.105466
     17 H6          6.0910   -0.5460    5.1340 hc        1 MOL      0.003694
     18 H7          5.7580    1.2280    5.2510 hc        1 MOL      0.003694
     19 N2          5.4030   -1.9630    2.3010 n         1 MOL     -0.198322
     20 C7          5.7190   -2.8940    1.3090 c3        1 MOL      0.090584
     21 C8          4.8800   -2.6020    0.0340 c         1 MOL      0.566842
     22 O5          3.7490   -3.0870   -0.0590 o         1 MOL     -0.655747
     23 C9          7.1850   -3.0210    1.1630 c3        1 MOL     -0.409620
     24 H8          4.8850   -2.3860    3.0560 hn        1 MOL      0.201027
     25 H9          5.3980   -3.8940    1.5810 h1        1 MOL      0.085152
     26 H10         7.4340   -3.8510    0.4900 hc        1 MOL      0.113268
     27 H11         7.6080   -2.0930    0.7830 hc        1 MOL      0.113268
     28 H12         7.6080   -3.3680    2.1010 hc        1 MOL      0.113268
     29 N3          5.3760   -1.8290   -0.9000 n         1 MOL     -0.277759
     30 C10         4.8110   -1.4420   -2.1510 c3        1 MOL     -0.023527
     31 C11         5.2390   -0.0450   -2.6530 c         1 MOL      0.475577
     32 O6          5.2420    0.1890   -3.8990 o         1 MOL     -0.517347
     33 C12         4.9100   -2.5780   -3.2160 c3        1 MOL     -0.335834
     34 C13         4.2850   -3.8860   -2.6770 c         1 MOL      0.717883
     35 O7          3.0460   -4.0960   -2.7190 o         1 MOL     -0.688178
     36 O8          5.1450   -4.7450   -2.3540 o         1 MOL     -0.688178
     37 H13         6.2960   -1.4570   -0.7090 hn        1 MOL      0.218154
     38 H14         3.7550   -1.2310   -1.9660 h1        1 MOL      0.098072
     39 H15         5.9890   -2.7100   -3.3390 hc        1 MOL      0.089167
     40 H16         4.4230   -2.3750   -4.1690 hc        1 MOL      0.089167
     41 N4          5.6060    0.8860   -1.7470 n         1 MOL     -0.144334
     42 C14         6.0440    2.2560   -2.1300 c3        1 MOL     -0.326141
     43 C15         4.7860    3.0660   -2.5100 c         1 MOL      0.722143
     44 O9          4.8590    4.1010   -3.0640 o         1 MOL     -0.596089
     45 H17         5.6170    0.6270   -0.7710 hn        1 MOL      0.174845
     46 H18         6.6420    2.3330   -3.0330 h1        1 MOL      0.135846
     47 H19         6.6360    2.7090   -1.3330 h1        1 MOL      0.135846
     48 N5          3.5880    2.4610   -2.3490 n         1 MOL     -0.374768
     49 C16         2.3660    3.0590   -2.8740 c3        1 MOL     -0.035919
     50 C17         1.9140    4.3330   -2.0620 c         1 MOL      0.566749
     51 O10         1.8490    4.2470   -0.8600 o         1 MOL     -0.522103
     52 C18         1.2500    1.9920   -2.8260 c3        1 MOL     -0.421278
     53 C19         1.6140    0.8160   -3.7770 c         1 MOL      0.729999
     54 N6          1.5250   -0.4150   -3.2280 n         1 MOL     -0.816980
     55 O11         1.9060    0.9890   -4.9280 o         1 MOL     -0.567377
     56 H20         3.3930    1.6020   -1.8560 hn        1 MOL      0.213261
     57 H21         2.5360    3.3140   -3.9160 h1        1 MOL      0.081569
     58 H22         0.3570    2.5500   -3.1200 hc        1 MOL      0.166563
     59 H23         1.1590    1.6100   -1.8200 hc        1 MOL      0.166563
     60 H24         1.2460   -0.5820   -2.2710 hn        1 MOL      0.358616
     61 H25         1.7080   -1.1740   -3.8680 hn        1 MOL      0.358616
     62 N7          1.6630    5.4180   -2.8200 n         1 MOL     -0.367340
     63 C20         1.2710    6.6990   -2.2240 c3        1 MOL     -0.215104
     64 C21        -0.2070    6.7250   -1.8240 c         1 MOL      0.593865
     65 O12        -1.0560    6.1090   -2.4680 o         1 MOL     -0.512508
     66 H26         1.6160    5.3540   -3.8220 hn        1 MOL      0.297973
     67 H27         1.3620    7.4520   -3.0140 h1        1 MOL      0.112950
     68 H28         1.8600    7.0540   -1.3770 h1        1 MOL      0.112950
     69 N8         -0.5620    7.4390   -0.7350 n         1 MOL     -0.374391
     70 C22        -1.9050    7.6920   -0.2170 c3        1 MOL     -0.517667
     71 C23        -2.4530    6.4710    0.5440 c         1 MOL      0.477724
     72 O13        -3.5540    6.5370    1.1090 o         1 MOL     -0.557009
     73 C24        -1.9760    8.9370    0.5650 c3        1 MOL      0.657895
     74 C25        -1.2240    8.9020    1.9040 c3        1 MOL     -0.264859
     75 O14        -1.3360    9.9460   -0.0690 oh        1 MOL     -0.684276
     76 H29         0.2040    7.9840   -0.3520 hn        1 MOL      0.236398
     77 H30        -2.5320    7.8200   -1.1040 h1        1 MOL      0.224942
     78 H31        -2.9940    9.2590    0.7620 h1        1 MOL      0.001541
     79 H32        -0.3910    9.8440   -0.1590 ho        1 MOL      0.393441
     80 H33        -0.8280    9.9060    2.0980 hc        1 MOL      0.048949
     81 H34        -1.9110    8.7830    2.7470 hc        1 MOL      0.048949
     82 H35        -0.5570    8.0490    1.9310 hc        1 MOL      0.048949
     83 N9         -1.7690    5.3400    0.5790 n         1 MOL      0.116194
     84 C26        -2.0730    4.0570    1.2150 c3        1 MOL     -0.127073
     85 C27        -1.6530    2.9710    0.2800 c         1 MOL      0.360421
     86 O15        -1.3200    3.2100   -0.8640 o         1 MOL     -0.423461
     87 C28        -1.4150    3.9380    2.6550 c3        1 MOL     -0.007133
     88 C29         0.0970    3.9630    2.4360 c3        1 MOL      0.117083
     89 C30        -1.8960    5.1220    3.5320 c3        1 MOL     -0.325721
     90 C31         0.7450    3.7680    3.8210 c3        1 MOL     -0.472756
     91 H36        -0.9360    5.1890    0.0170 hn        1 MOL      0.037419
     92 H37        -3.1500    3.9060    1.2290 h1        1 MOL      0.091478
     93 H38        -1.7810    3.1000    3.2610 hc        1 MOL      0.080058
     94 H39         0.4710    4.8720    1.9770 hc        1 MOL      0.074214
     95 H40         0.5420    3.1590    1.8470 hc        1 MOL      0.074214
     96 H41        -1.4670    6.0420    3.1320 hc        1 MOL      0.082645
     97 H42        -2.9800    5.2730    3.5160 hc        1 MOL      0.082645
     98 H43        -1.7040    4.8830    4.5760 hc        1 MOL      0.082645
     99 H44         0.3730    2.8530    4.2930 hc        1 MOL      0.111885
    100 H45         1.8170    3.5910    3.6950 hc        1 MOL      0.111885
    101 H46         0.5870    4.6260    4.4690 hc        1 MOL      0.111885
    102 N10        -1.7040    1.7080    0.7320 n         1 MOL     -0.467854
    103 C32        -1.3230    0.5830   -0.0670 c3        1 MOL      0.476184
    104 C33        -2.3220   -0.0530   -0.9850 c         1 MOL      0.128695
    105 O16        -1.9180   -0.5410   -2.0220 o         1 MOL     -0.446672
    106 C34        -0.6940   -0.4800    0.9180 c3        1 MOL      0.116713
    107 C35        -0.0350   -1.5380    0.0770 c         1 MOL      0.538709
    108 O17         1.0170   -1.3160   -0.5570 o         1 MOL     -0.666837
    109 O18        -0.5570   -2.7050    0.0240 o         1 MOL     -0.666837
    110 H47        -1.8000    1.6070    1.7380 hn        1 MOL      0.208372
    111 H48        -0.5060    0.8760   -0.7360 h1        1 MOL     -0.046742
    112 H49        -1.4850   -0.9260    1.5090 hc        1 MOL     -0.070328
    113 H50         0.0090    0.0530    1.5540 hc        1 MOL     -0.070328
    114 N11        -3.6000    0.0620   -0.7160 n         1 MOL     -0.074983
    115 C36        -4.6730   -0.4890   -1.5940 c3        1 MOL      0.296070
    116 C37        -5.4060   -1.5660   -0.8200 c         1 MOL      0.129011
    117 O19        -5.6610   -1.4060    0.3540 o         1 MOL     -0.433494
    118 C38        -5.6370    0.6210   -2.0800 c3        1 MOL     -0.349852
    119 C39        -6.1380    1.4550   -0.9790 ca        1 MOL      0.171320
    120 C40        -7.4540    1.3420   -0.3990 ca        1 MOL     -0.172752
    121 C41        -5.3840    2.5660   -0.5090 ca        1 MOL     -0.172752
    122 C42        -7.9510    2.2780    0.5050 ca        1 MOL     -0.128384
    123 C43        -5.9020    3.5290    0.3780 ca        1 MOL     -0.128384
    124 C44        -7.1450    3.3140    0.9800 ca        1 MOL     -0.088471
    125 H51        -3.8170    0.4650    0.1860 hn        1 MOL      0.164841
    126 H52        -4.1880   -0.9510   -2.4520 h1        1 MOL     -0.029219
    127 H53        -6.4520    0.0570   -2.5420 hc        1 MOL      0.107605
    128 H54        -5.0920    1.2150   -2.8110 hc        1 MOL      0.107605
    129 H55        -8.0910    0.5190   -0.6810 ha        1 MOL      0.117465
    130 H56        -4.3830    2.7540   -0.8620 ha        1 MOL      0.117465
    131 H57        -8.8690    2.0530    1.0400 ha        1 MOL      0.103171
    132 H58        -5.2330    4.3100    0.6920 ha        1 MOL      0.103171
    133 H59        -7.4750    3.9850    1.7590 ha        1 MOL      0.101469
    134 N12        -5.7080   -2.6930   -1.4880 n         1 MOL      0.078002
    135 C45        -6.5400   -3.7590   -0.8040 c3        1 MOL      0.075137
    136 C46        -6.0850   -4.3090    0.6170 c         1 MOL      0.055758
    137 O20        -6.9140   -4.6400    1.4040 o         1 MOL     -0.446573
    138 C47        -6.6760   -4.9110   -1.8030 c3        1 MOL      0.016592
    139 C48        -6.5480   -4.2680   -3.1450 c3        1 MOL     -0.249013
    140 C49        -5.7230   -2.9870   -2.9380 c3        1 MOL     -0.134432
    141 H60        -7.4740   -3.2130   -0.6850 h1        1 MOL      0.062613
    142 H61        -5.8030   -5.5490   -1.7040 hc        1 MOL      0.045083
    143 H62        -7.5980   -5.4930   -1.7670 hc        1 MOL      0.045083
    144 H63        -5.9790   -4.9990   -3.7280 hc        1 MOL      0.089698
    145 H64        -7.5720   -4.1000   -3.4820 hc        1 MOL      0.089698
    146 H65        -4.7110   -3.0790   -3.3150 h1        1 MOL      0.100646
    147 H66        -6.2820   -2.1840   -3.4160 h1        1 MOL      0.100646
    148 N13        -4.8040   -4.2390    0.9040 n         1 MOL      0.229692
    149 C50        -4.2420   -4.7580    2.1750 c3        1 MOL     -0.428154
    150 C51        -4.2990   -3.7160    3.2550 c         1 MOL      0.456278
    151 O21        -4.2360   -3.9620    4.4780 o         1 MOL     -0.558652
    152 C52        -2.7350   -5.1670    1.9530 c3        1 MOL      0.122414
    153 C53        -2.6020   -6.3250    1.0210 c3        1 MOL     -0.011949
    154 C54        -1.1430   -6.5780    0.5170 c         1 MOL      0.573774
    155 O22        -0.4130   -7.4880    1.0940 o         1 MOL     -0.693037
    156 O23        -0.6940   -5.8910   -0.3930 o         1 MOL     -0.693037
    157 H67        -4.1240   -3.9960    0.2010 hn        1 MOL      0.093114
    158 H68        -4.7940   -5.6640    2.4120 h1        1 MOL      0.207821
    159 H69        -2.1450   -5.3540    2.8520 hc        1 MOL      0.016785
    160 H70        -2.2320   -4.2630    1.6290 hc        1 MOL      0.016785
    161 H71        -3.1930   -6.0800    0.1330 hc        1 MOL     -0.022867
    162 H72        -3.1090   -7.1860    1.4510 hc        1 MOL     -0.022867
    163 N14        -4.5420   -2.4370    2.9160 n         1 MOL     -0.005859
    164 C55        -4.7270   -1.3710    3.8540 c3        1 MOL     -0.328728
    165 H73        -5.2920   -0.5670    3.3820 h1        1 MOL      0.114303
    166 H74        -5.2760   -1.7400    4.7210 h1        1 MOL      0.114303
    167 H75        -3.7560   -0.9930    4.1720 h1        1 MOL      0.114303
    168 H76        -4.5110   -2.1790    1.9420 hn        1 MOL      0.096402
    169 Ca1         1.3130   -4.4250   -0.6610 Ca        1 MOL      1.782471
    170 O24        -0.0150   -3.1900   -2.5660 oh        1 MOL     -0.818943
    171 H77        -0.2040   -2.3430   -2.1590 ho        1 MOL      0.384775
    172 H78         0.2200   -2.9850   -3.4610 ho        1 MOL      0.384775
    173 O25         2.7700   -6.6550   -1.2370 oh        1 MOL     -0.818943
    174 H79         2.0900   -7.3210   -1.2730 ho        1 MOL      0.384775
    175 H80         3.4030   -6.9060   -1.9070 ho        1 MOL      0.384775
    176 O26         1.8960   -4.4880    2.0380 oh        1 MOL     -0.818943
    177 H81         2.5440   -4.2560    2.6980 ho        1 MOL      0.384775
    178 H82         1.1750   -4.8790    2.5330 ho        1 MOL      0.384775
    179 O27         0.1230   -6.1270   -2.9530 oh        1 MOL     -0.818943
    180 H83         0.0050   -6.9230   -3.4790 ho        1 MOL      0.384775
    181 H84        -0.2670   -6.3430   -2.1030 ho        1 MOL      0.384775
@<TRIPOS>BOND
     1    1    2 1   
     2    1    4 1   
     3    1    5 1   
     4    1    6 1   
     5    2    3 2   
     6    2    7 1   
     7    7    8 1   
     8    7   15 1   
     9    8    9 1   
    10    8   11 1   
    11    8   16 1   
    12    9   10 2   
    13    9   19 1   
    14   11   12 1   
    15   11   17 1   
    16   11   18 1   
    17   12   13 1   
    18   12   14 1   
    19   19   20 1   
    20   19   24 1   
    21   20   21 1   
    22   20   23 1   
    23   20   25 1   
    24   21   22 2   
    25   21   29 1   
    26   23   26 1   
    27   23   27 1   
    28   23   28 1   
    29   29   30 1   
    30   29   37 1   
    31   30   31 1   
    32   30   33 1   
    33   30   38 1   
    34   31   32 2   
    35   31   41 1   
    36   33   34 1   
    37   33   39 1   
    38   33   40 1   
    39   34   35 1   
    40   34   36 1   
    41   41   42 1   
    42   41   45 1   
    43   42   43 1   
    44   42   46 1   
    45   42   47 1   
    46   43   44 2   
    47   43   48 1   
    48   48   49 1   
    49   48   56 1   
    50   49   50 1   
    51   49   52 1   
    52   49   57 1   
    53   50   51 2   
    54   50   62 1   
    55   52   53 1   
    56   52   58 1   
    57   52   59 1   
    58   53   54 1   
    59   53   55 2   
    60   54   60 1   
    61   54   61 1   
    62   62   63 1   
    63   62   66 1   
    64   63   64 1   
    65   63   67 1   
    66   63   68 1   
    67   64   65 2   
    68   64   69 1   
    69   69   70 1   
    70   69   76 1   
    71   70   71 1   
    72   70   73 1   
    73   70   77 1   
    74   71   72 2   
    75   71   83 1   
    76   73   74 1   
    77   73   75 1   
    78   73   78 1   
    79   74   80 1   
    80   74   81 1   
    81   74   82 1   
    82   75   79 1   
    83   83   84 1   
    84   83   91 1   
    85   84   85 1   
    86   84   87 1   
    87   84   92 1   
    88   85   86 2   
    89   85  102 1   
    90   87   88 1   
    91   87   89 1   
    92   87   93 1   
    93   88   90 1   
    94   88   94 1   
    95   88   95 1   
    96   89   96 1   
    97   89   97 1   
    98   89   98 1   
    99   90   99 1   
   100   90  100 1   
   101   90  101 1   
   102  102  103 1   
   103  102  110 1   
   104  103  104 1   
   105  103  106 1   
   106  103  111 1   
   107  104  105 2   
   108  104  114 1   
   109  106  107 1   
   110  106  112 1   
   111  106  113 1   
   112  107  108 1   
   113  107  109 1   
   114  114  115 1   
   115  114  125 1   
   116  115  116 1   
   117  115  118 1   
   118  115  126 1   
   119  116  117 2   
   120  116  134 1   
   121  118  119 1   
   122  118  127 1   
   123  118  128 1   
   124  119  120 ar  
   125  119  121 ar  
   126  120  122 ar  
   127  120  129 1   
   128  121  123 ar  
   129  121  130 1   
   130  122  124 ar  
   131  122  131 1   
   132  123  124 ar  
   133  123  132 1   
   134  124  133 1   
   135  134  135 1   
   136  134  140 1   
   137  135  136 1   
   138  135  138 1   
   139  135  141 1   
   140  136  137 2   
   141  136  148 1   
   142  138  139 1   
   143  138  142 1   
   144  138  143 1   
   145  139  140 1   
   146  139  144 1   
   147  139  145 1   
   148  140  146 1   
   149  140  147 1   
   150  148  149 1   
   151  148  157 1   
   152  149  150 1   
   153  149  152 1   
   154  149  158 1   
   155  150  151 2   
   156  150  163 1   
   157  152  153 1   
   158  152  159 1   
   159  152  160 1   
   160  153  154 1   
   161  153  161 1   
   162  153  162 1   
   163  154  155 1   
   164  154  156 1   
   165  163  164 1   
   166  163  168 1   
   167  164  165 1   
   168  164  166 1   
   169  164  167 1   
   170  170  171 1   
   171  170  172 1   
   172  173  174 1   
   173  173  175 1   
   174  176  177 1   
   175  176  178 1   
   176  179  180 1   
   177  179  181 1   
@<TRIPOS>SUBSTRUCTURE
     1 MOL         1 TEMP              0 ****  ****    0 ROOT
