@<TRIPOS>MOLECULE
MOL
  181   177     1     0     0
SMALL
resp


@<TRIPOS>ATOM
      1 C1         11.2820    6.1670    0.0040 c3        1 MOL     -0.336435
      2 C2         10.3990    5.1250    0.7370 c         1 MOL      0.757806
      3 O1          9.9540    5.3060    1.8760 o         1 MOL     -0.602104
      4 H1         10.6860    6.6800   -0.7510 hc        1 MOL      0.084020
      5 H2         11.6600    6.8940    0.7230 hc        1 MOL      0.084020
      6 H3         12.1190    5.6610   -0.4770 hc        1 MOL      0.084020
      7 N1         10.1300    3.8740    0.2660 n         1 MOL     -0.692661
      8 C3         10.4780    3.3390   -1.0520 c3        1 MOL      0.187638
      9 C4         11.1370    1.9190   -0.9170 c         1 MOL      0.503709
     10 O2         11.2960    1.3610    0.1840 o         1 MOL     -0.465433
     11 C5          9.2350    3.4370   -1.9570 c3        1 MOL     -0.292354
     12 C6          8.1680    2.4290   -1.6260 c         1 MOL      0.900848
     13 O3          8.0490    1.4570   -2.4080 o         1 MOL     -0.779181
     14 O4          7.3250    2.6380   -0.6960 o         1 MOL     -0.779181
     15 H4          9.4760    3.3470    0.8250 hn        1 MOL      0.398252
     16 H5         11.1910    4.0630   -1.4440 h1        1 MOL      0.010598
     17 H6          9.5290    3.2820   -2.9930 hc        1 MOL      0.046564
     18 H7          8.8010    4.4230   -1.7770 hc        1 MOL      0.046564
     19 N2         11.4290    1.2980   -1.9790 n         1 MOL     -0.518028
     20 C7         12.0500   -0.0000   -2.0780 c3        1 MOL      0.230685
     21 C8         11.2970   -1.2560   -1.5070 c         1 MOL      0.451044
     22 O5         11.9280   -2.2460   -1.1300 o         1 MOL     -0.525024
     23 C9         13.5600    0.1520   -1.7350 c3        1 MOL     -0.327334
     24 H8         11.2410    1.7490   -2.8620 hn        1 MOL      0.295723
     25 H9         12.0990   -0.2040   -3.1460 h1        1 MOL      0.015742
     26 H10        13.6990    0.2690   -0.6610 hc        1 MOL      0.088833
     27 H11        14.1180   -0.6910   -2.1460 hc        1 MOL      0.088833
     28 H12        13.9560    1.1030   -2.0820 hc        1 MOL      0.088833
     29 N3          9.9340   -1.2200   -1.4040 n         1 MOL     -0.301828
     30 C10         9.1700   -2.3900   -0.9430 c3        1 MOL      0.003370
     31 C11         7.8410   -2.5340   -1.6670 c         1 MOL      0.416565
     32 O6          7.3190   -1.5470   -2.1980 o         1 MOL     -0.552059
     33 C12         8.8700   -2.3550    0.5610 c3        1 MOL     -0.055254
     34 C13         8.3810   -0.9900    1.0220 c         1 MOL      0.785623
     35 O7          8.5970   -0.7260    2.2030 o         1 MOL     -0.717530
     36 O8          7.7160   -0.2440    0.2630 o         1 MOL     -0.717530
     37 H13         9.4240   -0.3500   -1.4800 hn        1 MOL      0.181176
     38 H14         9.7160   -3.3000   -1.1860 h1        1 MOL      0.034455
     39 H15         9.7930   -2.5460    1.1140 hc        1 MOL      0.013780
     40 H16         8.1360   -3.0360    0.9830 hc        1 MOL      0.013780
     41 N4          7.3150   -3.7650   -1.7500 n         1 MOL     -0.292079
     42 C14         5.8940   -3.9770   -2.2300 c3        1 MOL     -0.185528
     43 C15         4.7560   -3.2870   -1.4430 c         1 MOL      0.749914
     44 O9          4.8240   -2.0830   -1.1140 o         1 MOL     -0.613549
     45 H17         7.8320   -4.5660   -1.4420 hn        1 MOL      0.257966
     46 H18         5.6450   -5.0200   -2.4440 h1        1 MOL      0.089756
     47 H19         5.8130   -3.6520   -3.2710 h1        1 MOL      0.089756
     48 N5          3.7240   -4.1290   -1.1700 n         1 MOL     -0.675302
     49 C16         2.4780   -3.6950   -0.4760 c3        1 MOL      0.205329
     50 C17         2.7110   -3.2210    0.9520 c         1 MOL      0.432747
     51 O10         3.4450   -3.8580    1.7320 o         1 MOL     -0.503002
     52 C18         1.4540   -4.7680   -0.4990 c3        1 MOL     -0.436572
     53 C19         0.1390   -4.5550    0.2520 c         1 MOL      0.703537
     54 N6         -1.0000   -4.1690   -0.4320 n         1 MOL     -0.789577
     55 O11         0.0740   -4.8400    1.4380 o         1 MOL     -0.512054
     56 H20         3.9030   -5.1260   -1.2320 hn        1 MOL      0.359421
     57 H21         1.9530   -2.9720   -1.0900 h1        1 MOL      0.073854
     58 H22         1.8560   -5.6110    0.0610 hc        1 MOL      0.128464
     59 H23         1.3400   -5.0260   -1.5540 hc        1 MOL      0.128464
     60 H24        -0.9330   -4.1560   -1.4360 hn        1 MOL      0.361281
     61 H25        -1.8760   -4.2070    0.0640 hn        1 MOL      0.361281
     62 N7          1.9680   -2.2830    1.3880 n         1 MOL     -0.357661
     63 C20         1.7650   -1.9700    2.8160 c3        1 MOL      0.047349
     64 C21         1.8910   -0.4980    3.1870 c         1 MOL      0.681806
     65 O12         2.7110    0.2300    2.5190 o         1 MOL     -0.614971
     66 H26         1.2920   -1.9510    0.7240 hn        1 MOL      0.254008
     67 H27         2.5100   -2.3790    3.5090 h1        1 MOL      0.092729
     68 H28         0.7750   -2.3760    3.0120 h1        1 MOL      0.092729
     69 N8          1.0390    0.0330    4.0650 n         1 MOL     -0.682085
     70 C22         0.1260   -0.7550    4.9170 c3        1 MOL      0.115162
     71 C23        -1.2500   -1.0910    4.2810 c         1 MOL      0.493205
     72 O13        -1.7460   -2.2200    4.3590 o         1 MOL     -0.563053
     73 C24        -0.1260   -0.0540    6.2370 c3        1 MOL      0.362212
     74 C25        -0.9140   -0.8360    7.2300 c3        1 MOL     -0.458718
     75 O14         1.1180    0.1160    6.9080 oh        1 MOL     -0.558885
     76 H29         1.1850    1.0190    4.2200 hn        1 MOL      0.355094
     77 H30         0.6820   -1.6850    5.0280 h1        1 MOL      0.048597
     78 H31        -0.6130    0.8850    5.9910 h1        1 MOL      0.000364
     79 H32         1.4240    0.9770    6.6080 ho        1 MOL      0.345573
     80 H33        -0.3750   -1.7150    7.5970 hc        1 MOL      0.126670
     81 H34        -1.2180   -0.1920    8.0520 hc        1 MOL      0.126670
     82 H35        -1.8570   -1.0950    6.7390 hc        1 MOL      0.126670
     83 N9         -1.8660   -0.1430    3.5790 n         1 MOL     -0.264543
     84 C26        -3.1340   -0.2970    2.9040 c3        1 MOL     -0.006047
     85 C27        -2.9720   -0.0530    1.4590 c         1 MOL      0.360913
     86 O15        -2.1030    0.7300    0.9530 o         1 MOL     -0.562048
     87 C28        -4.3580    0.5150    3.4760 c3        1 MOL      0.107246
     88 C29        -4.1030    2.0130    3.2320 c3        1 MOL     -0.078234
     89 C30        -4.6490    0.0480    4.8660 c3        1 MOL     -0.085735
     90 C31        -5.1110    2.9050    4.0090 c3        1 MOL     -0.208175
     91 H36        -1.3600    0.7310    3.5710 hn        1 MOL      0.185274
     92 H37        -3.3810   -1.3560    2.8110 h1        1 MOL      0.167153
     93 H38        -5.2960    0.4100    2.9200 hc        1 MOL      0.053643
     94 H39        -4.2170    2.1860    2.1570 hc        1 MOL      0.032182
     95 H40        -3.1040    2.2900    3.5820 hc        1 MOL      0.032182
     96 H41        -4.7510   -1.0290    4.8870 hc        1 MOL      0.009844
     97 H42        -3.7960    0.3150    5.4980 hc        1 MOL      0.009844
     98 H43        -5.5730    0.4670    5.2620 hc        1 MOL      0.009844
     99 H44        -6.1100    2.6720    3.6430 hc        1 MOL      0.054103
    100 H45        -5.0930    2.8200    5.0910 hc        1 MOL      0.054103
    101 H46        -4.8870    3.9410    3.7550 hc        1 MOL      0.054103
    102 N10        -3.6880   -0.6010    0.5110 n         1 MOL     -0.291308
    103 C32        -4.8200   -1.5840    0.5400 c3        1 MOL      0.000102
    104 C33        -5.8330   -1.2470   -0.6650 c         1 MOL      0.660218
    105 O16        -5.4100   -0.9720   -1.8060 o         1 MOL     -0.539455
    106 C34        -4.2470   -3.0060    0.4040 c3        1 MOL     -0.226216
    107 C35        -5.4270   -4.0140    0.4280 c         1 MOL      0.754581
    108 O17        -6.4860   -3.7220    1.0080 o         1 MOL     -0.723856
    109 O18        -5.2410   -5.1380   -0.0810 o         1 MOL     -0.723856
    110 H47        -3.5350   -0.3080   -0.4440 hn        1 MOL      0.261489
    111 H48        -5.4190   -1.4510    1.4460 h1        1 MOL     -0.007907
    112 H49        -3.6620   -3.0820    1.3210 hc        1 MOL      0.042285
    113 H50        -3.5710   -3.2220   -0.4240 hc        1 MOL      0.042285
    114 N11        -7.1360   -1.2530   -0.3630 n         1 MOL     -0.781283
    115 C36        -8.3390   -0.9110   -1.2250 c3        1 MOL      0.387960
    116 C37        -9.5760   -0.6050   -0.3440 c         1 MOL      0.181069
    117 O19        -9.9420   -1.3670    0.5530 o         1 MOL     -0.471853
    118 C38        -8.6850   -2.2250   -1.9660 c3        1 MOL     -0.165375
    119 C39        -9.8900   -2.2350   -2.8700 ca        1 MOL      0.000401
    120 C40       -11.2510   -2.3970   -2.3820 ca        1 MOL     -0.121443
    121 C41        -9.6750   -1.8250   -4.2130 ca        1 MOL     -0.121443
    122 C42       -12.3010   -2.2130   -3.2810 ca        1 MOL     -0.114637
    123 C43       -10.7480   -1.6500   -5.0680 ca        1 MOL     -0.114637
    124 C44       -12.0580   -1.8680   -4.5750 ca        1 MOL     -0.130914
    125 H51        -7.3160   -1.5010    0.6030 hn        1 MOL      0.410804
    126 H52        -8.1770   -0.1990   -2.0390 h1        1 MOL      0.051950
    127 H53        -8.7530   -2.9810   -1.1850 hc        1 MOL      0.099717
    128 H54        -7.8800   -2.4550   -2.6550 hc        1 MOL      0.099717
    129 H55       -11.3980   -2.7390   -1.3720 ha        1 MOL      0.125862
    130 H56        -8.6660   -1.5930   -4.5250 ha        1 MOL      0.125862
    131 H57       -13.2940   -2.3060   -2.8630 ha        1 MOL      0.096951
    132 H58       -10.5930   -1.3950   -6.1100 ha        1 MOL      0.096951
    133 H59       -12.8720   -1.6450   -5.2470 ha        1 MOL      0.085711
    134 N12       -10.2590    0.5310   -0.6520 n         1 MOL      0.096782
    135 C45       -10.0500    1.4500   -1.7880 c3        1 MOL      0.126462
    136 C46        -8.8210    2.3620   -1.6690 c         1 MOL      0.321824
    137 O20        -8.2300    2.7620   -2.6720 o         1 MOL     -0.499699
    138 C47       -11.4120    2.1590   -1.9000 c3        1 MOL     -0.112055
    139 C48       -12.3620    1.4430   -1.0120 c3        1 MOL     -0.025800
    140 C49       -11.4830    0.8340    0.0520 c3        1 MOL     -0.002635
    141 H60        -9.8870    0.8130   -2.6540 h1        1 MOL      0.013549
    142 H61       -11.3660    3.1790   -1.5080 hc        1 MOL      0.049426
    143 H62       -11.7890    2.2380   -2.9160 hc        1 MOL      0.049426
    144 H63       -13.0260    2.1720   -0.5440 hc        1 MOL      0.007350
    145 H64       -12.9370    0.6640   -1.5120 hc        1 MOL      0.007350
    146 H65       -11.2700    1.5510    0.8480 h1        1 MOL      0.030867
    147 H66       -11.9600   -0.0470    0.4740 h1        1 MOL      0.030867
    148 N13        -8.3650    2.7570   -0.4660 n         1 MOL     -0.488830
    149 C50        -7.3540    3.8320   -0.2670 c3        1 MOL      0.503234
    150 C51        -7.7470    4.8340    0.6760 c         1 MOL      0.323537
    151 O21        -8.4800    4.5220    1.6440 o         1 MOL     -0.598292
    152 C52        -5.9450    3.1960    0.0090 c3        1 MOL     -0.481650
    153 C53        -5.3160    2.2460   -1.0020 c3        1 MOL     -0.008345
    154 C54        -4.5840    2.9540   -2.0960 c         1 MOL      0.718220
    155 O22        -5.0130    4.0670   -2.5670 o         1 MOL     -0.733974
    156 O23        -3.5350    2.4600   -2.4940 o         1 MOL     -0.733974
    157 H67        -8.6550    2.3160    0.3940 hn        1 MOL      0.229337
    158 H68        -7.3860    4.4500   -1.1690 h1        1 MOL      0.064928
    159 H69        -5.9820    2.7020    0.9800 hc        1 MOL      0.132318
    160 H70        -5.2030    3.9700    0.2120 hc        1 MOL      0.132318
    161 H71        -6.0550    1.6680   -1.5600 hc        1 MOL      0.029840
    162 H72        -4.7110    1.4980   -0.4880 hc        1 MOL      0.029840
    163 N14        -7.3940    6.1130    0.6230 n         1 MOL     -0.351365
    164 C55        -6.5610    6.7470   -0.3660 c3        1 MOL      0.047037
    165 H73        -7.1890    7.2680   -1.0890 h1        1 MOL      0.019450
    166 H74        -5.8980    7.4620    0.1220 h1        1 MOL      0.019450
    167 H75        -5.9680    5.9920   -0.8800 h1        1 MOL      0.019450
    168 H76        -7.7060    6.6130    1.4480 hn        1 MOL      0.265149
    169 Ca1         5.7490    0.4830   -1.5570 Ca        1 MOL      1.795428
    170 O24         3.2000    0.7500   -1.7590 oh        1 MOL     -0.863174
    171 H77         2.5950    0.5800   -2.4770 ho        1 MOL      0.424047
    172 H78         2.6810    1.2170   -1.1040 ho        1 MOL      0.424047
    173 O25         5.2710    2.6910   -2.9410 oh        1 MOL     -0.863174
    174 H79         4.4580    3.1560   -2.7540 ho        1 MOL      0.424047
    175 H80         5.4480    2.8620   -3.8750 ho        1 MOL      0.424047
    176 O26         4.8010    0.6710    0.9460 oh        1 MOL     -0.863174
    177 H81         4.0140    0.4530    1.4340 ho        1 MOL      0.424047
    178 H82         5.3540    1.1420    1.5770 ho        1 MOL      0.424047
    179 O27         5.1190   -0.0610   -4.2010 oh        1 MOL     -0.863174
    180 H83         4.9340   -0.8990   -4.6370 ho        1 MOL      0.424047
    181 H84         5.0720    0.5880   -4.9120 ho        1 MOL      0.424047
@<TRIPOS>BOND
     1    1    2 1   
     2    1    4 1   
     3    1    5 1   
     4    1    6 1   
     5    2    3 2   
     6    2    7 1   
     7    7    8 1   
     8    7   15 1   
     9    8    9 1   
    10    8   11 1   
    11    8   16 1   
    12    9   10 2   
    13    9   19 1   
    14   11   12 1   
    15   11   17 1   
    16   11   18 1   
    17   12   13 1   
    18   12   14 1   
    19   19   20 1   
    20   19   24 1   
    21   20   21 1   
    22   20   23 1   
    23   20   25 1   
    24   21   22 2   
    25   21   29 1   
    26   23   26 1   
    27   23   27 1   
    28   23   28 1   
    29   29   30 1   
    30   29   37 1   
    31   30   31 1   
    32   30   33 1   
    33   30   38 1   
    34   31   32 2   
    35   31   41 1   
    36   33   34 1   
    37   33   39 1   
    38   33   40 1   
    39   34   35 1   
    40   34   36 1   
    41   41   42 1   
    42   41   45 1   
    43   42   43 1   
    44   42   46 1   
    45   42   47 1   
    46   43   44 2   
    47   43   48 1   
    48   48   49 1   
    49   48   56 1   
    50   49   50 1   
    51   49   52 1   
    52   49   57 1   
    53   50   51 2   
    54   50   62 1   
    55   52   53 1   
    56   52   58 1   
    57   52   59 1   
    58   53   54 1   
    59   53   55 2   
    60   54   60 1   
    61   54   61 1   
    62   62   63 1   
    63   62   66 1   
    64   63   64 1   
    65   63   67 1   
    66   63   68 1   
    67   64   65 2   
    68   64   69 1   
    69   69   70 1   
    70   69   76 1   
    71   70   71 1   
    72   70   73 1   
    73   70   77 1   
    74   71   72 2   
    75   71   83 1   
    76   73   74 1   
    77   73   75 1   
    78   73   78 1   
    79   74   80 1   
    80   74   81 1   
    81   74   82 1   
    82   75   79 1   
    83   83   84 1   
    84   83   91 1   
    85   84   85 1   
    86   84   87 1   
    87   84   92 1   
    88   85   86 2   
    89   85  102 1   
    90   87   88 1   
    91   87   89 1   
    92   87   93 1   
    93   88   90 1   
    94   88   94 1   
    95   88   95 1   
    96   89   96 1   
    97   89   97 1   
    98   89   98 1   
    99   90   99 1   
   100   90  100 1   
   101   90  101 1   
   102  102  103 1   
   103  102  110 1   
   104  103  104 1   
   105  103  106 1   
   106  103  111 1   
   107  104  105 2   
   108  104  114 1   
   109  106  107 1   
   110  106  112 1   
   111  106  113 1   
   112  107  108 1   
   113  107  109 1   
   114  114  115 1   
   115  114  125 1   
   116  115  116 1   
   117  115  118 1   
   118  115  126 1   
   119  116  117 2   
   120  116  134 1   
   121  118  119 1   
   122  118  127 1   
   123  118  128 1   
   124  119  120 ar  
   125  119  121 ar  
   126  120  122 ar  
   127  120  129 1   
   128  121  123 ar  
   129  121  130 1   
   130  122  124 ar  
   131  122  131 1   
   132  123  124 ar  
   133  123  132 1   
   134  124  133 1   
   135  134  135 1   
   136  134  140 1   
   137  135  136 1   
   138  135  138 1   
   139  135  141 1   
   140  136  137 2   
   141  136  148 1   
   142  138  139 1   
   143  138  142 1   
   144  138  143 1   
   145  139  140 1   
   146  139  144 1   
   147  139  145 1   
   148  140  146 1   
   149  140  147 1   
   150  148  149 1   
   151  148  157 1   
   152  149  150 1   
   153  149  152 1   
   154  149  158 1   
   155  150  151 2   
   156  150  163 1   
   157  152  153 1   
   158  152  159 1   
   159  152  160 1   
   160  153  154 1   
   161  153  161 1   
   162  153  162 1   
   163  154  155 1   
   164  154  156 1   
   165  163  164 1   
   166  163  168 1   
   167  164  165 1   
   168  164  166 1   
   169  164  167 1   
   170  170  171 1   
   171  170  172 1   
   172  173  174 1   
   173  173  175 1   
   174  176  177 1   
   175  176  178 1   
   176  179  180 1   
   177  179  181 1   
@<TRIPOS>SUBSTRUCTURE
     1 MOL         1 TEMP              0 ****  ****    0 ROOT
