@<TRIPOS>MOLECULE
MOL
  195   189     1     0     0
SMALL
resp


@<TRIPOS>ATOM
      1 C1          5.6580   -0.6360    6.2360 c3        1 MOL     -0.258401
      2 C2          5.0330   -0.3510    4.9100 c         1 MOL      0.705500
      3 O1          4.3560    0.6770    4.6850 o         1 MOL     -0.629472
      4 H1          6.6180   -0.1230    6.3020 hc        1 MOL      0.064315
      5 H2          5.0020   -0.2820    7.0310 hc        1 MOL      0.064315
      6 H3          5.8120   -1.7090    6.3430 hc        1 MOL      0.064315
      7 N1          5.2590   -1.1520    3.8930 n         1 MOL     -0.384003
      8 C3          4.9920   -0.9070    2.4530 c3        1 MOL      0.090149
      9 C4          3.5780   -0.7260    1.8540 c         1 MOL      0.158715
     10 O2          3.4010   -0.7620    0.6580 o         1 MOL     -0.416721
     11 C5          5.6650   -2.0080    1.5970 c3        1 MOL     -0.015510
     12 C6          6.9520   -2.6210    2.1440 c         1 MOL      0.618799
     13 O3          7.8680   -2.8950    1.3700 o         1 MOL     -0.667157
     14 O4          6.9910   -3.2120    3.2720 o         1 MOL     -0.667157
     15 H4          5.8270   -1.9740    4.0570 hn        1 MOL      0.153072
     16 H5          5.4450    0.0650    2.2420 h1        1 MOL      0.075498
     17 H6          5.9090   -1.5630    0.6360 hc        1 MOL     -0.000119
     18 H7          4.9740   -2.8250    1.4000 hc        1 MOL     -0.000119
     19 N2          2.5910   -0.6410    2.7050 n         1 MOL     -0.140775
     20 C7          1.1990   -0.7510    2.3710 c3        1 MOL      0.034423
     21 C8          0.5340    0.6730    2.4760 c         1 MOL      0.343345
     22 O5          0.8940    1.4580    3.3620 o         1 MOL     -0.467117
     23 C9          0.5390   -1.6860    3.4210 c3        1 MOL     -0.226306
     24 C10         1.1420   -3.0730    3.4100 c3        1 MOL      0.190017
     25 C11         0.4150   -4.0280    4.3630 c3        1 MOL     -0.217275
     26 C12         1.3520   -5.2480    4.4410 c3        1 MOL      0.238086
     27 N3          0.7610   -6.2710    5.4310 n4        1 MOL     -0.515463
     28 H8          2.7740   -0.6970    3.6930 hn        1 MOL      0.165551
     29 H9          1.0920   -1.1480    1.3610 h1        1 MOL      0.177150
     30 H10        -0.5440   -1.7270    3.2830 hc        1 MOL      0.096909
     31 H11         0.6320   -1.2370    4.4110 hc        1 MOL      0.096909
     32 H12         2.1990   -2.9890    3.6760 hc        1 MOL     -0.016916
     33 H13         1.0440   -3.4420    2.3960 hc        1 MOL     -0.016916
     34 H14        -0.5850   -4.3060    4.0340 hc        1 MOL      0.069531
     35 H15         0.4410   -3.5140    5.3230 hc        1 MOL      0.069531
     36 H16         2.3820   -4.9820    4.6740 hx        1 MOL      0.043134
     37 H17         1.4920   -5.6530    3.4380 hx        1 MOL      0.043134
     38 H18         1.1300   -7.1810    5.2030 hn        1 MOL      0.361457
     39 H19         0.8320   -5.9480    6.3800 hn        1 MOL      0.361457
     40 H20        -0.2370   -6.3300    5.2890 hn        1 MOL      0.361457
     41 N4         -0.4870    1.0090    1.7470 n         1 MOL     -0.211190
     42 C13        -0.9800    0.4130    0.4960 c3        1 MOL     -0.003417
     43 C14        -1.4570   -1.1140    0.4780 c         1 MOL      0.040212
     44 O6         -0.7150   -1.9740    0.0180 o         1 MOL     -0.382768
     45 C15        -0.0490    0.8110   -0.6570 c3        1 MOL     -0.049074
     46 C16         0.1930    2.3290   -0.8850 c         1 MOL      0.380346
     47 O7          0.9820    2.6800   -1.7550 o         1 MOL     -0.595058
     48 O8         -0.4300    3.1400   -0.1140 o         1 MOL     -0.595058
     49 H21        -0.5700    1.9800    1.9840 hn        1 MOL      0.121156
     50 H22        -1.8590    1.0160    0.2480 h1        1 MOL     -0.012654
     51 H23        -0.3400    0.4190   -1.6320 hc        1 MOL      0.094534
     52 H24         0.8930    0.3320   -0.3850 hc        1 MOL      0.094534
     53 N5         -2.5760   -1.4890    1.1420 n         1 MOL     -0.233851
     54 C17        -3.5790   -0.5780    1.7750 c3        1 MOL      0.143031
     55 C18        -4.6210   -1.4190    2.5590 c         1 MOL      0.489140
     56 O9         -4.3740   -2.6530    2.7390 o         1 MOL     -0.578418
     57 H25        -2.7630   -2.4800    1.2130 hn        1 MOL      0.268897
     58 H26        -4.0520   -0.0070    0.9680 h1        1 MOL      0.033188
     59 H27        -3.1350    0.0330    2.5510 h1        1 MOL      0.033188
     60 N6         -5.6960   -0.8690    3.1240 n         1 MOL     -0.474927
     61 C19        -6.1180    0.5630    2.9270 c3        1 MOL      0.013343
     62 C20        -7.0740    0.8360    1.7410 c         1 MOL      0.435791
     63 O10        -7.9040    0.0070    1.4320 o         1 MOL     -0.414305
     64 C21        -6.7360    1.0700    4.2810 c3        1 MOL     -0.039081
     65 C22        -7.7160    0.0990    4.9930 c         1 MOL      0.729372
     66 O11        -7.2580   -0.4770    5.9840 o         1 MOL     -0.677513
     67 O12        -8.8810   -0.0080    4.5880 o         1 MOL     -0.677513
     68 H28        -6.3090   -1.5360    3.5570 hn        1 MOL      0.352334
     69 H29        -5.2240    1.1580    2.7480 h1        1 MOL      0.012214
     70 H30        -7.2340    2.0190    4.0720 hc        1 MOL     -0.022387
     71 H31        -5.9650    1.3910    4.9830 hc        1 MOL     -0.022387
     72 N7         -6.8880    1.9970    1.1010 n         1 MOL     -0.133225
     73 C23        -7.6680    2.3290   -0.0250 c3        1 MOL     -0.444008
     74 C24        -7.3900    1.3740   -1.2120 c         1 MOL      0.577143
     75 O13        -8.2960    0.8230   -1.7480 o         1 MOL     -0.514162
     76 H32        -6.1490    2.6170    1.3970 hn        1 MOL      0.149689
     77 H33        -7.3280    3.3300   -0.2960 h1        1 MOL      0.183160
     78 H34        -8.7350    2.3220    0.1960 h1        1 MOL      0.183160
     79 N8         -6.1490    1.1570   -1.6860 n         1 MOL     -0.399262
     80 C25        -5.6500    0.1700   -2.6710 c3        1 MOL     -0.028948
     81 C26        -4.7590   -0.8520   -2.0920 c         1 MOL      0.416112
     82 O14        -3.7760   -0.4080   -1.4550 o         1 MOL     -0.301649
     83 C27        -4.9790    0.9200   -3.8310 c3        1 MOL      0.257412
     84 C28        -4.0570    2.0640   -3.5580 c3        1 MOL     -0.338825
     85 O15        -6.0120    1.4160   -4.5620 oh        1 MOL     -0.622463
     86 H35        -5.4360    1.7090   -1.2250 hn        1 MOL      0.208679
     87 H36        -6.5450   -0.3750   -2.9830 h1        1 MOL      0.108759
     88 H37        -4.5230    0.1900   -4.4970 h1        1 MOL      0.109618
     89 H38        -6.3760    2.2020   -4.1340 ho        1 MOL      0.398719
     90 H39        -3.3870    2.2670   -4.3960 hc        1 MOL      0.082033
     91 H40        -4.5770    2.9730   -3.2640 hc        1 MOL      0.082033
     92 H41        -3.3830    1.8690   -2.7260 hc        1 MOL      0.082033
     93 N9         -4.9620   -2.0810   -2.3680 n         1 MOL     -0.426614
     94 C29        -4.2060   -3.2330   -1.8010 c3        1 MOL      0.317869
     95 C30        -2.8840   -3.4970   -2.5720 c         1 MOL      0.333818
     96 O16        -2.6940   -4.6040   -3.0480 o         1 MOL     -0.500082
     97 C31        -5.1250   -4.3750   -1.3590 c3        1 MOL      0.023808
     98 C32        -6.2960   -3.8570   -0.4660 c3        1 MOL     -0.149017
     99 C33        -4.4820   -5.4170   -0.5260 c3        1 MOL     -0.218120
    100 C34        -7.5980   -3.3920   -1.1200 c3        1 MOL     -0.122565
    101 H42        -5.6510   -2.3760   -3.0450 hn        1 MOL      0.270808
    102 H43        -3.9480   -2.9030   -0.7920 h1        1 MOL     -0.023731
    103 H44        -5.3860   -4.8510   -2.3090 hc        1 MOL      0.020820
    104 H45        -5.9350   -3.1600    0.2950 hc        1 MOL      0.079055
    105 H46        -6.7670   -4.6530    0.1260 hc        1 MOL      0.079055
    106 H47        -4.1080   -5.0480    0.4320 hc        1 MOL      0.054596
    107 H48        -5.1250   -6.2600   -0.2740 hc        1 MOL      0.054596
    108 H49        -3.6580   -5.8260   -1.1130 hc        1 MOL      0.054596
    109 H50        -8.0290   -4.1570   -1.7680 hc        1 MOL      0.043612
    110 H51        -8.3370   -3.0630   -0.3910 hc        1 MOL      0.043612
    111 H52        -7.3620   -2.5260   -1.7450 hc        1 MOL      0.043612
    112 N10        -2.1730   -2.4080   -2.9000 n         1 MOL     -0.010066
    113 C35        -1.3110   -2.4660   -4.1370 c3        1 MOL     -0.005003
    114 C36         0.1790   -2.6840   -3.7850 c         1 MOL      0.198616
    115 O17         0.9100   -3.0860   -4.6980 o         1 MOL     -0.502488
    116 C37        -1.3570   -1.3270   -5.0400 c3        1 MOL      0.248355
    117 C38        -1.1170   -0.0270   -4.3300 c3        1 MOL     -0.177041
    118 O18        -2.6220   -1.2970   -5.5940 oh        1 MOL     -0.682156
    119 H53        -2.3140   -1.4790   -2.5450 hn        1 MOL     -0.078396
    120 H54        -1.6270   -3.3220   -4.7370 h1        1 MOL      0.139280
    121 H55        -0.5680   -1.2910   -5.7940 h1        1 MOL      0.071761
    122 H56        -2.6950   -0.5510   -6.1960 ho        1 MOL      0.423367
    123 H57        -1.7760    0.1480   -3.4750 hc        1 MOL      0.060070
    124 H58        -0.1070    0.0290   -3.9220 hc        1 MOL      0.060070
    125 H59        -1.3720    0.7000   -5.1000 hc        1 MOL      0.060070
    126 N11         0.6210   -2.4590   -2.5220 n         1 MOL     -0.027562
    127 C39         2.0630   -2.3760   -2.1040 c3        1 MOL      0.095477
    128 C40         2.9200   -1.2330   -2.7940 c         1 MOL      0.246639
    129 O19         2.5740   -0.6390   -3.7980 o         1 MOL     -0.438784
    130 C41         2.7580   -3.8060   -2.1320 c3        1 MOL      0.421992
    131 C42         2.0990   -5.0100   -1.3570 c3        1 MOL     -0.397451
    132 O20         4.0980   -3.7900   -1.6000 oh        1 MOL     -0.673709
    133 H60         0.0020   -2.4620   -1.7280 hn        1 MOL      0.071155
    134 H61         1.9610   -2.1640   -1.0430 h1        1 MOL     -0.034848
    135 H62         2.9530   -4.1390   -3.1490 h1        1 MOL      0.026163
    136 H63         4.0660   -4.3560   -0.8200 ho        1 MOL      0.386598
    137 H64         1.2490   -5.3980   -1.9300 hc        1 MOL      0.095890
    138 H65         2.8290   -5.8130   -1.2230 hc        1 MOL      0.095890
    139 H66         1.7400   -4.6550   -0.3950 hc        1 MOL      0.095890
    140 N12         4.0460   -0.9380   -2.1430 n         1 MOL      0.018007
    141 C43         5.0070    0.1250   -2.5400 c3        1 MOL     -0.193109
    142 C44         4.7810    1.5150   -1.9300 c         1 MOL      0.656919
    143 O21         5.0930    2.5350   -2.5120 o         1 MOL     -0.633883
    144 C45         6.4470   -0.4250   -2.2520 c3        1 MOL     -0.146868
    145 C46         6.9270   -1.4730   -3.2890 c3        1 MOL      0.076753
    146 C47         8.2790   -2.1090   -2.9570 c3        1 MOL      0.150500
    147 C48         9.4980   -1.2430   -3.3100 c3        1 MOL     -0.141459
    148 N13        10.6940   -1.6750   -2.6250 n4        1 MOL     -0.127680
    149 H67         4.2520   -1.4610   -1.2990 hn        1 MOL      0.181009
    150 H68         4.9730    0.3700   -3.6010 h1        1 MOL      0.093289
    151 H69         6.4210   -0.8750   -1.2600 hc        1 MOL      0.061781
    152 H70         7.1880    0.3820   -2.2580 hc        1 MOL      0.061781
    153 H71         7.1000   -1.0580   -4.2810 hc        1 MOL      0.003198
    154 H72         6.1440   -2.2170   -3.4130 hc        1 MOL      0.003198
    155 H73         8.4000   -3.0230   -3.5370 hc        1 MOL     -0.031612
    156 H74         8.2580   -2.3860   -1.9110 hc        1 MOL     -0.031612
    157 H75         9.3070   -0.1860   -3.1020 hx        1 MOL      0.101693
    158 H76         9.5490   -1.5110   -4.3620 hx        1 MOL      0.101693
    159 H77        11.5850   -1.4620   -3.0650 hn        1 MOL      0.278043
    160 H78        10.7190   -1.3700   -1.6660 hn        1 MOL      0.278043
    161 H79        10.7530   -2.6790   -2.6730 hn        1 MOL      0.278043
    162 N14         4.2950    1.5620   -0.7110 n         1 MOL     -0.289505
    163 C49         4.1720    2.8600    0.0520 c3        1 MOL     -0.028457
    164 C50         5.5180    3.3830    0.5290 c         1 MOL      0.151162
    165 O22         6.2880    2.5620    1.1400 o         1 MOL     -0.490626
    166 C51         3.1190    2.8700    1.1250 c3        1 MOL      0.486593
    167 C52         2.9200    4.1900    1.8910 c3        1 MOL     -0.770472
    168 C53         2.5900    5.4370    1.0100 c         1 MOL      0.938784
    169 O23         3.5280    5.9840    0.3540 o         1 MOL     -0.794936
    170 O24         1.4760    5.9970    1.1390 o         1 MOL     -0.794936
    171 H80         3.9960    0.7010   -0.2770 hn        1 MOL      0.151716
    172 H81         3.8110    3.6100   -0.6470 h1        1 MOL      0.104675
    173 H82         3.4860    2.1910    1.8950 hc        1 MOL     -0.011163
    174 H83         2.1960    2.4150    0.7570 hc        1 MOL     -0.011163
    175 H84         3.8100    4.3910    2.4910 hc        1 MOL      0.175792
    176 H85         2.0500    4.0560    2.5350 hc        1 MOL      0.175792
    177 N15         5.9300    4.6370    0.2620 n         1 MOL     -0.081993
    178 C54         7.2040    5.2470    0.7760 c3        1 MOL      0.048344
    179 H86         7.6640    5.8450   -0.0120 h1        1 MOL      0.022124
    180 H87         6.9830    5.8830    1.6330 h1        1 MOL      0.022124
    181 H88         7.8900    4.4560    1.0770 h1        1 MOL      0.022124
    182 H89         5.4420    5.0860   -0.4960 hn        1 MOL      0.295422
    183 Ca1        -1.0610    5.5340    0.5580 Ca        1 MOL      1.551687
    184 O25         0.3870    5.3010   -1.9720 oh        1 MOL     -0.749470
    185 H90        -0.0100    5.3450   -2.8400 ho        1 MOL      0.377816
    186 H91         0.8520    4.4580   -1.9710 ho        1 MOL      0.377816
    187 O26        -3.8580    6.8070    0.2460 oh        1 MOL     -0.749470
    188 H92        -4.6130    7.3970    0.3570 ho        1 MOL      0.377816
    189 H93        -3.9670    6.1450    0.9370 ho        1 MOL      0.377816
    190 O27        -2.6210    4.4530   -1.3940 oh        1 MOL     -0.749470
    191 H94        -3.1520    4.8940   -2.0480 ho        1 MOL      0.377816
    192 H95        -1.8720    4.1100   -1.8830 ho        1 MOL      0.377816
    193 O28        -0.9310    7.9830   -0.5940 oh        1 MOL     -0.749470
    194 H96        -0.8080    8.4390    0.2400 ho        1 MOL      0.377816
    195 H97        -0.2230    8.3110   -1.1480 ho        1 MOL      0.377816
@<TRIPOS>BOND
     1    1    2 1   
     2    1    4 1   
     3    1    5 1   
     4    1    6 1   
     5    2    3 2   
     6    2    7 1   
     7    7    8 1   
     8    7   15 1   
     9    8    9 1   
    10    8   11 1   
    11    8   16 1   
    12    9   10 2   
    13    9   19 1   
    14   11   12 1   
    15   11   17 1   
    16   11   18 1   
    17   12   13 1   
    18   12   14 1   
    19   19   20 1   
    20   19   28 1   
    21   20   21 1   
    22   20   23 1   
    23   20   29 1   
    24   21   22 2   
    25   21   41 1   
    26   23   24 1   
    27   23   30 1   
    28   23   31 1   
    29   24   25 1   
    30   24   32 1   
    31   24   33 1   
    32   25   26 1   
    33   25   34 1   
    34   25   35 1   
    35   26   27 1   
    36   26   36 1   
    37   26   37 1   
    38   27   38 1   
    39   27   39 1   
    40   27   40 1   
    41   41   42 1   
    42   41   49 1   
    43   42   43 1   
    44   42   45 1   
    45   42   50 1   
    46   43   44 2   
    47   43   53 1   
    48   45   46 1   
    49   45   51 1   
    50   45   52 1   
    51   46   47 1   
    52   46   48 1   
    53   53   54 1   
    54   53   57 1   
    55   54   55 1   
    56   54   58 1   
    57   54   59 1   
    58   55   56 2   
    59   55   60 1   
    60   60   61 1   
    61   60   68 1   
    62   61   62 1   
    63   61   64 1   
    64   61   69 1   
    65   62   63 2   
    66   62   72 1   
    67   64   65 1   
    68   64   70 1   
    69   64   71 1   
    70   65   66 1   
    71   65   67 1   
    72   72   73 1   
    73   72   76 1   
    74   73   74 1   
    75   73   77 1   
    76   73   78 1   
    77   74   75 2   
    78   74   79 1   
    79   79   80 1   
    80   79   86 1   
    81   80   81 1   
    82   80   83 1   
    83   80   87 1   
    84   81   82 2   
    85   81   93 1   
    86   83   84 1   
    87   83   85 1   
    88   83   88 1   
    89   84   90 1   
    90   84   91 1   
    91   84   92 1   
    92   85   89 1   
    93   93   94 1   
    94   93  101 1   
    95   94   95 1   
    96   94   97 1   
    97   94  102 1   
    98   95   96 2   
    99   95  112 1   
   100   97   98 1   
   101   97   99 1   
   102   97  103 1   
   103   98  100 1   
   104   98  104 1   
   105   98  105 1   
   106   99  106 1   
   107   99  107 1   
   108   99  108 1   
   109  100  109 1   
   110  100  110 1   
   111  100  111 1   
   112  112  113 1   
   113  112  119 1   
   114  113  114 1   
   115  113  116 1   
   116  113  120 1   
   117  114  115 2   
   118  114  126 1   
   119  116  117 1   
   120  116  118 1   
   121  116  121 1   
   122  117  123 1   
   123  117  124 1   
   124  117  125 1   
   125  118  122 1   
   126  126  127 1   
   127  126  133 1   
   128  127  128 1   
   129  127  130 1   
   130  127  134 1   
   131  128  129 2   
   132  128  140 1   
   133  130  131 1   
   134  130  132 1   
   135  130  135 1   
   136  131  137 1   
   137  131  138 1   
   138  131  139 1   
   139  132  136 1   
   140  140  141 1   
   141  140  149 1   
   142  141  142 1   
   143  141  144 1   
   144  141  150 1   
   145  142  143 2   
   146  142  162 1   
   147  144  145 1   
   148  144  151 1   
   149  144  152 1   
   150  145  146 1   
   151  145  153 1   
   152  145  154 1   
   153  146  147 1   
   154  146  155 1   
   155  146  156 1   
   156  147  148 1   
   157  147  157 1   
   158  147  158 1   
   159  148  159 1   
   160  148  160 1   
   161  148  161 1   
   162  162  163 1   
   163  162  171 1   
   164  163  164 1   
   165  163  166 1   
   166  163  172 1   
   167  164  165 2   
   168  164  177 1   
   169  166  167 1   
   170  166  173 1   
   171  166  174 1   
   172  167  168 1   
   173  167  175 1   
   174  167  176 1   
   175  168  169 1   
   176  168  170 1   
   177  177  178 1   
   178  177  182 1   
   179  178  179 1   
   180  178  180 1   
   181  178  181 1   
   182  184  185 1   
   183  184  186 1   
   184  187  188 1   
   185  187  189 1   
   186  190  191 1   
   187  190  192 1   
   188  193  194 1   
   189  193  195 1   
@<TRIPOS>SUBSTRUCTURE
     1 MOL         1 TEMP              0 ****  ****    0 ROOT
