@<TRIPOS>MOLECULE
MOL
  181   177     1     0     0
SMALL
resp


@<TRIPOS>ATOM
      1 C1        -10.8120   -5.6410   -2.8480 c3        1 MOL     -0.264999
      2 C2         -9.8820   -5.4590   -1.6550 c         1 MOL      0.758249
      3 O1         -9.4630   -6.4640   -1.0740 o         1 MOL     -0.617432
      4 H1        -10.3320   -5.2480   -3.7440 hc        1 MOL      0.058040
      5 H2        -11.0260   -6.7010   -2.9840 hc        1 MOL      0.058040
      6 H3        -11.7420   -5.1020   -2.6700 hc        1 MOL      0.058040
      7 N1         -9.3630   -4.2830   -1.2720 n         1 MOL     -0.699358
      8 C3         -9.6780   -2.9810   -1.8690 c3        1 MOL      0.262582
      9 C4        -10.1660   -2.0140   -0.7770 c         1 MOL      0.521537
     10 O2        -10.0200   -2.3710    0.4480 o         1 MOL     -0.436361
     11 C5         -8.5020   -2.4830   -2.7110 c3        1 MOL     -0.205239
     12 C6         -7.2810   -2.1680   -1.9170 c         1 MOL      0.752873
     13 O3         -6.6040   -1.1440   -2.2270 o         1 MOL     -0.736477
     14 O4         -6.8330   -2.9550   -1.0120 o         1 MOL     -0.736477
     15 H4         -8.5640   -4.3950   -0.6560 hn        1 MOL      0.386656
     16 H5        -10.4730   -3.0440   -2.6230 h1        1 MOL     -0.015458
     17 H6         -8.7150   -1.6060   -3.3130 hc        1 MOL      0.043090
     18 H7         -8.2540   -3.3010   -3.3890 hc        1 MOL      0.043090
     19 N2        -11.0020   -1.0040   -1.1530 n         1 MOL     -0.570723
     20 C7        -11.9760   -0.2560   -0.3230 c3        1 MOL      0.245651
     21 C8        -11.4400    0.2810    1.0280 c         1 MOL      0.538291
     22 O5        -12.2680    0.5490    1.9060 o         1 MOL     -0.571775
     23 C9        -13.3110   -0.9530   -0.2570 c3        1 MOL     -0.280950
     24 H8        -10.8130   -0.7440   -2.1080 hn        1 MOL      0.279570
     25 H9        -12.1650    0.7280   -0.7500 h1        1 MOL      0.041647
     26 H10       -13.2620   -1.9200    0.2540 hc        1 MOL      0.072378
     27 H11       -14.0200   -0.2830    0.2120 hc        1 MOL      0.072378
     28 H12       -13.7190   -1.0950   -1.2570 hc        1 MOL      0.072378
     29 N3        -10.2230    0.6930    1.0600 n         1 MOL     -0.457981
     30 C10        -9.4890    0.9910    2.2420 c3        1 MOL      0.123519
     31 C11        -8.3710    2.0390    1.9780 c         1 MOL      0.529049
     32 O6         -8.4950    2.7720    0.9510 o         1 MOL     -0.534992
     33 C12        -8.7660   -0.2790    2.7840 c3        1 MOL     -0.365432
     34 C13        -7.8460   -0.9830    1.7830 c         1 MOL      0.528551
     35 O7         -7.5670   -0.4420    0.6790 o         1 MOL     -0.640246
     36 O8         -7.1770   -2.0090    2.1060 o         1 MOL     -0.640246
     37 H13        -9.6690    0.6970    0.2150 hn        1 MOL      0.289369
     38 H14       -10.1490    1.5330    2.9210 h1        1 MOL      0.077785
     39 H15        -9.5570   -1.0160    2.9380 hc        1 MOL      0.116244
     40 H16        -8.3480   -0.0390    3.7610 hc        1 MOL      0.116244
     41 N4         -7.3080    2.2090    2.7790 n         1 MOL     -0.423046
     42 C14        -6.1940    3.0120    2.4370 c3        1 MOL     -0.427310
     43 C15        -5.3110    2.4860    1.2820 c         1 MOL      0.635467
     44 O9         -5.1730    1.2760    1.0380 o         1 MOL     -0.502323
     45 H17        -7.1530    1.5920    3.5540 hn        1 MOL      0.301602
     46 H18        -5.5510    3.0310    3.3160 h1        1 MOL      0.201306
     47 H19        -6.5710    3.9810    2.1160 h1        1 MOL      0.201306
     48 N5         -4.5550    3.4450    0.6490 n         1 MOL     -0.590522
     49 C16        -3.3970    3.0940   -0.2630 c3        1 MOL      0.348189
     50 C17        -2.3120    4.2060   -0.2280 c         1 MOL      0.535693
     51 O10        -2.6330    5.3730    0.0810 o         1 MOL     -0.536031
     52 C18        -3.7310    2.7400   -1.7530 c3        1 MOL     -0.433749
     53 C19        -4.5180    1.4640   -1.7730 c         1 MOL      0.826782
     54 N6         -5.7830    1.4990   -2.1530 n         1 MOL     -0.718378
     55 O11        -4.1150    0.3630   -1.4690 o         1 MOL     -0.660358
     56 H20        -4.6760    4.4210    0.9070 hn        1 MOL      0.289811
     57 H21        -2.9440    2.1840    0.1130 h1        1 MOL     -0.021951
     58 H22        -2.8360    2.5690   -2.3570 hc        1 MOL      0.100576
     59 H23        -4.2660    3.5680   -2.2280 hc        1 MOL      0.100576
     60 H24        -6.2710    2.3820   -2.1500 hn        1 MOL      0.328318
     61 H25        -6.3930    0.6990   -2.2010 hn        1 MOL      0.328318
     62 N7         -1.0230    3.8760   -0.5290 n         1 MOL     -0.475328
     63 C20         0.0540    4.8820   -0.7790 c3        1 MOL      0.058353
     64 C21         0.5720    5.5910    0.5730 c         1 MOL      0.558114
     65 O12         0.0530    5.2460    1.6380 o         1 MOL     -0.525154
     66 H26        -0.7630    2.9590   -0.8900 hn        1 MOL      0.307880
     67 H27        -0.2590    5.6430   -1.4930 h1        1 MOL      0.073662
     68 H28         0.8910    4.3480   -1.2160 h1        1 MOL      0.073662
     69 N8          1.5570    6.5070    0.5470 n         1 MOL     -0.459133
     70 C22         2.2870    7.1000   -0.5800 c3        1 MOL      0.021295
     71 C23         3.1770    5.9830   -1.1920 c         1 MOL      0.147500
     72 O13         3.1950    5.8030   -2.4280 o         1 MOL     -0.489506
     73 C24         3.2600    8.2500   -0.0980 c3        1 MOL      0.481618
     74 C25         3.9630    9.0160   -1.2210 c3        1 MOL     -0.485427
     75 O14         2.4370    9.1370    0.6440 oh        1 MOL     -0.671578
     76 H29         1.7260    6.8210    1.4840 hn        1 MOL      0.272274
     77 H30         1.5000    7.4470   -1.2520 h1        1 MOL      0.107914
     78 H31         4.0370    7.7900    0.5080 h1        1 MOL     -0.026466
     79 H32         2.8300   10.0010    0.7880 ho        1 MOL      0.400729
     80 H33         4.0420    8.3710   -2.0980 hc        1 MOL      0.122497
     81 H34         3.4440    9.9240   -1.5100 hc        1 MOL      0.122497
     82 H35         4.9160    9.3450   -0.8190 hc        1 MOL      0.122497
     83 N9          3.8870    5.2050   -0.3930 n         1 MOL     -0.171417
     84 C26         4.4820    3.9270   -0.7700 c3        1 MOL      0.235452
     85 C27         4.0550    2.9060    0.2580 c         1 MOL      0.498235
     86 O15         3.4850    3.2260    1.2620 o         1 MOL     -0.566544
     87 C28         5.9860    4.0200   -0.9750 c3        1 MOL      0.054941
     88 C29         6.8590    4.7210    0.0140 c3        1 MOL      0.069091
     89 C30         6.3950    4.5660   -2.3580 c3        1 MOL     -0.285550
     90 C31         6.7600    4.0700    1.3690 c3        1 MOL     -0.106987
     91 H36         3.8620    5.3960    0.5950 hn        1 MOL      0.203848
     92 H37         4.0400    3.5700   -1.6960 h1        1 MOL      0.059989
     93 H38         6.3260    2.9870   -0.9420 hc        1 MOL      0.061126
     94 H39         6.7210    5.7970    0.1310 hc        1 MOL     -0.031749
     95 H40         7.8730    4.7130   -0.3670 hc        1 MOL     -0.031749
     96 H41         7.4820    4.4960   -2.4090 hc        1 MOL      0.065157
     97 H42         6.0320    3.9370   -3.1680 hc        1 MOL      0.065157
     98 H43         6.0770    5.6000   -2.4540 hc        1 MOL      0.065157
     99 H44         6.8160    2.9890    1.3550 hc        1 MOL      0.005461
    100 H45         7.5300    4.3800    2.0820 hc        1 MOL      0.005461
    101 H46         5.8270    4.3830    1.8250 hc        1 MOL      0.005461
    102 N10         4.2930    1.5970    0.0850 n         1 MOL     -0.424705
    103 C32         4.7260    0.8670   -1.1360 c3        1 MOL      0.050911
    104 C33         6.0580    0.1020   -1.0110 c         1 MOL      0.504850
    105 O16         6.5790   -0.3810   -2.0270 o         1 MOL     -0.556416
    106 C34         3.6160   -0.0810   -1.4740 c3        1 MOL     -0.037935
    107 C35         2.3030    0.6050   -1.6810 c         1 MOL      0.685193
    108 O17         1.2570    0.0220   -1.3160 o         1 MOL     -0.714317
    109 O18         2.1740    1.6880   -2.2360 o         1 MOL     -0.714317
    110 H47         3.8900    1.0130    0.7960 hn        1 MOL      0.317313
    111 H48         4.8160    1.4820   -2.0310 h1        1 MOL      0.020600
    112 H49         3.4900   -0.8720   -0.7410 hc        1 MOL      0.014013
    113 H50         3.9150   -0.6690   -2.3400 hc        1 MOL      0.014013
    114 N11         6.6580    0.0030    0.1800 n         1 MOL     -0.534346
    115 C36         7.9990   -0.7300    0.3540 c3        1 MOL      0.319739
    116 C37         8.0890   -1.4610    1.6940 c         1 MOL      0.303134
    117 O19         7.5930   -0.9400    2.7100 o         1 MOL     -0.502396
    118 C38         9.0520    0.3390    0.0500 c3        1 MOL     -0.021603
    119 C39        10.3070   -0.3630   -0.3270 ca        1 MOL      0.096871
    120 C40        11.2070   -0.6720    0.7040 ca        1 MOL     -0.255863
    121 C41        10.6400   -0.6580   -1.6670 ca        1 MOL     -0.255863
    122 C42        12.4120   -1.3750    0.3050 ca        1 MOL     -0.003622
    123 C43        11.8400   -1.1980   -2.0270 ca        1 MOL     -0.003622
    124 C44        12.7450   -1.5810   -1.0590 ca        1 MOL     -0.247833
    125 H51         6.1880    0.3740    0.9950 hn        1 MOL      0.273293
    126 H52         8.1420   -1.4620   -0.4360 h1        1 MOL      0.010462
    127 H53         9.2770    0.8690    0.9770 hc        1 MOL      0.017737
    128 H54         8.7460    1.0900   -0.6710 hc        1 MOL      0.017737
    129 H55        10.9760   -0.3540    1.7120 ha        1 MOL      0.155937
    130 H56         9.8710   -0.4160   -2.3880 ha        1 MOL      0.155937
    131 H57        13.0970   -1.6040    1.1150 ha        1 MOL      0.089328
    132 H58        11.9830   -1.3500   -3.0880 ha        1 MOL      0.089328
    133 H59        13.6460   -2.0680   -1.4090 ha        1 MOL      0.128591
    134 N12         8.7120   -2.6390    1.7550 n         1 MOL     -0.054134
    135 C45         9.3060   -3.4690    0.7260 c3        1 MOL     -0.162291
    136 C46         8.2700   -4.1880   -0.0850 c         1 MOL      0.587473
    137 O20         8.3510   -4.4120   -1.2800 o         1 MOL     -0.551976
    138 C47        10.2250   -4.4800    1.4140 c3        1 MOL     -0.117981
    139 C48        10.4810   -3.8450    2.7920 c3        1 MOL     -0.117032
    140 C49         9.1120   -3.1690    3.0850 c3        1 MOL     -0.038436
    141 H60         9.9090   -2.8080    0.0890 h1        1 MOL      0.142571
    142 H61         9.7670   -5.4460    1.6080 hc        1 MOL      0.077263
    143 H62        11.1740   -4.5760    0.8910 hc        1 MOL      0.077263
    144 H63        10.5110   -4.6480    3.5210 hc        1 MOL      0.042901
    145 H64        11.3310   -3.1630    2.7320 hc        1 MOL      0.042901
    146 H65         8.3230   -3.8870    3.2710 h1        1 MOL      0.075507
    147 H66         9.2300   -2.4940    3.9430 h1        1 MOL      0.075507
    148 N13         7.1310   -4.5370    0.5780 n         1 MOL     -0.547577
    149 C50         5.9130   -5.1410    0.0530 c3        1 MOL      0.244069
    150 C51         6.1600   -6.5770   -0.4430 c         1 MOL      0.480887
    151 O21         6.4960   -7.4590    0.3070 o         1 MOL     -0.583629
    152 C52         4.8210   -5.0750    1.0440 c3        1 MOL     -0.152133
    153 C53         4.1200   -3.7460    1.0600 c3        1 MOL     -0.061950
    154 C54         2.7690   -3.7450    1.9530 c         1 MOL      0.609730
    155 O22         2.6470   -4.5440    2.9260 o         1 MOL     -0.675918
    156 O23         1.9550   -2.8340    1.6360 o         1 MOL     -0.675918
    157 H67         7.1030   -4.1410    1.5100 hn        1 MOL      0.353470
    158 H68         5.5430   -4.5230   -0.7640 h1        1 MOL      0.071170
    159 H69         5.2420   -5.1720    2.0450 hc        1 MOL      0.020068
    160 H70         4.0770   -5.8770    0.9410 hc        1 MOL      0.020068
    161 H71         3.9680   -3.3420    0.0580 hc        1 MOL     -0.019659
    162 H72         4.8570   -3.0820    1.5230 hc        1 MOL     -0.019659
    163 N14         6.0310   -6.8630   -1.7140 n         1 MOL     -0.338444
    164 C55         6.0420   -6.0640   -2.9560 c3        1 MOL     -0.102510
    165 H73         5.0170   -5.8370   -3.2500 h1        1 MOL      0.070559
    166 H74         6.5850   -5.1350   -2.7860 h1        1 MOL      0.070559
    167 H75         6.5300   -6.6310   -3.7490 h1        1 MOL      0.070559
    168 H76         6.1290   -7.8630   -1.7800 hn        1 MOL      0.239356
    169 Ca1        -5.1740   -1.2810    0.2130 Ca        1 MOL      1.714577
    170 O24        -2.4210   -0.8950    0.2600 oh        1 MOL     -0.785125
    171 H77        -2.4000   -0.3300   -0.5130 ho        1 MOL      0.398415
    172 H78        -1.5060   -1.1680    0.3760 ho        1 MOL      0.398415
    173 O25        -4.0370   -3.2980    1.6100 oh        1 MOL     -0.785125
    174 H79        -3.2520   -3.7050    1.2410 ho        1 MOL      0.398415
    175 H80        -4.6300   -4.0350    1.7870 ho        1 MOL      0.398415
    176 O26        -3.7920   -2.9410   -1.5190 oh        1 MOL     -0.785125
    177 H81        -3.8490   -2.6570   -2.4250 ho        1 MOL      0.398415
    178 H82        -3.1960   -3.6930   -1.5450 ho        1 MOL      0.398415
    179 O27        -5.0370   -0.7590    2.8800 oh        1 MOL     -0.785125
    180 H83        -5.0450   -0.0280    3.5020 ho        1 MOL      0.398415
    181 H84        -5.7150   -1.3560    3.2120 ho        1 MOL      0.398415
@<TRIPOS>BOND
     1    1    2 1   
     2    1    4 1   
     3    1    5 1   
     4    1    6 1   
     5    2    3 2   
     6    2    7 1   
     7    7    8 1   
     8    7   15 1   
     9    8    9 1   
    10    8   11 1   
    11    8   16 1   
    12    9   10 2   
    13    9   19 1   
    14   11   12 1   
    15   11   17 1   
    16   11   18 1   
    17   12   13 1   
    18   12   14 1   
    19   19   20 1   
    20   19   24 1   
    21   20   21 1   
    22   20   23 1   
    23   20   25 1   
    24   21   22 2   
    25   21   29 1   
    26   23   26 1   
    27   23   27 1   
    28   23   28 1   
    29   29   30 1   
    30   29   37 1   
    31   30   31 1   
    32   30   33 1   
    33   30   38 1   
    34   31   32 2   
    35   31   41 1   
    36   33   34 1   
    37   33   39 1   
    38   33   40 1   
    39   34   35 1   
    40   34   36 1   
    41   41   42 1   
    42   41   45 1   
    43   42   43 1   
    44   42   46 1   
    45   42   47 1   
    46   43   44 2   
    47   43   48 1   
    48   48   49 1   
    49   48   56 1   
    50   49   50 1   
    51   49   52 1   
    52   49   57 1   
    53   50   51 2   
    54   50   62 1   
    55   52   53 1   
    56   52   58 1   
    57   52   59 1   
    58   53   54 1   
    59   53   55 2   
    60   54   60 1   
    61   54   61 1   
    62   62   63 1   
    63   62   66 1   
    64   63   64 1   
    65   63   67 1   
    66   63   68 1   
    67   64   65 2   
    68   64   69 1   
    69   69   70 1   
    70   69   76 1   
    71   70   71 1   
    72   70   73 1   
    73   70   77 1   
    74   71   72 2   
    75   71   83 1   
    76   73   74 1   
    77   73   75 1   
    78   73   78 1   
    79   74   80 1   
    80   74   81 1   
    81   74   82 1   
    82   75   79 1   
    83   83   84 1   
    84   83   91 1   
    85   84   85 1   
    86   84   87 1   
    87   84   92 1   
    88   85   86 2   
    89   85  102 1   
    90   87   88 1   
    91   87   89 1   
    92   87   93 1   
    93   88   90 1   
    94   88   94 1   
    95   88   95 1   
    96   89   96 1   
    97   89   97 1   
    98   89   98 1   
    99   90   99 1   
   100   90  100 1   
   101   90  101 1   
   102  102  103 1   
   103  102  110 1   
   104  103  104 1   
   105  103  106 1   
   106  103  111 1   
   107  104  105 2   
   108  104  114 1   
   109  106  107 1   
   110  106  112 1   
   111  106  113 1   
   112  107  108 1   
   113  107  109 1   
   114  114  115 1   
   115  114  125 1   
   116  115  116 1   
   117  115  118 1   
   118  115  126 1   
   119  116  117 2   
   120  116  134 1   
   121  118  119 1   
   122  118  127 1   
   123  118  128 1   
   124  119  120 ar  
   125  119  121 ar  
   126  120  122 ar  
   127  120  129 1   
   128  121  123 ar  
   129  121  130 1   
   130  122  124 ar  
   131  122  131 1   
   132  123  124 ar  
   133  123  132 1   
   134  124  133 1   
   135  134  135 1   
   136  134  140 1   
   137  135  136 1   
   138  135  138 1   
   139  135  141 1   
   140  136  137 2   
   141  136  148 1   
   142  138  139 1   
   143  138  142 1   
   144  138  143 1   
   145  139  140 1   
   146  139  144 1   
   147  139  145 1   
   148  140  146 1   
   149  140  147 1   
   150  148  149 1   
   151  148  157 1   
   152  149  150 1   
   153  149  152 1   
   154  149  158 1   
   155  150  151 2   
   156  150  163 1   
   157  152  153 1   
   158  152  159 1   
   159  152  160 1   
   160  153  154 1   
   161  153  161 1   
   162  153  162 1   
   163  154  155 1   
   164  154  156 1   
   165  163  164 1   
   166  163  168 1   
   167  164  165 1   
   168  164  166 1   
   169  164  167 1   
   170  170  171 1   
   171  170  172 1   
   172  173  174 1   
   173  173  175 1   
   174  176  177 1   
   175  176  178 1   
   176  179  180 1   
   177  179  181 1   
@<TRIPOS>SUBSTRUCTURE
     1 MOL         1 TEMP              0 ****  ****    0 ROOT
