@<TRIPOS>MOLECULE
MOL
  192   187     1     0     0
SMALL
resp


@<TRIPOS>ATOM
      1 C1         11.9020    5.7290   -2.1070 c3        1 MOL     -0.438289
      2 C2         11.7600    4.3320   -1.4480 c         1 MOL      0.619099
      3 O1         12.7370    3.5950   -1.3900 o         1 MOL     -0.566290
      4 H1         12.2470    6.4480   -1.3640 hc        1 MOL      0.117872
      5 H2         12.6250    5.6750   -2.9220 hc        1 MOL      0.117872
      6 H3         10.9360    6.0470   -2.4980 hc        1 MOL      0.117872
      7 N1         10.6250    4.0180   -0.9310 n         1 MOL     -0.115626
      8 C3         10.4840    2.8330   -0.0410 c3        1 MOL     -0.462965
      9 C4          9.1860    1.9990   -0.3340 c         1 MOL      0.564649
     10 O2          8.1420    2.5260   -0.7310 o         1 MOL     -0.616873
     11 C5         10.5630    3.1440    1.4040 c3        1 MOL      0.050316
     12 C6          9.7910    4.3720    1.8470 c         1 MOL      0.632950
     13 O3         10.3340    4.9910    2.7710 o         1 MOL     -0.681570
     14 O4          8.6580    4.7960    1.5070 o         1 MOL     -0.681570
     15 H4          9.7960    4.5970   -1.0120 hn        1 MOL      0.104279
     16 H5         11.2380    2.0830   -0.2860 h1        1 MOL      0.144661
     17 H6         11.6030    3.3800    1.6510 hc        1 MOL      0.070980
     18 H7         10.3710    2.2740    2.0230 hc        1 MOL      0.070980
     19 N2          9.3830    0.6730   -0.2510 n         1 MOL     -0.313822
     20 C7          8.3130   -0.3280   -0.5050 c3        1 MOL     -0.045098
     21 C8          7.2640   -0.4600    0.5940 c         1 MOL      0.571990
     22 O5          7.7840   -0.7000    1.6840 o         1 MOL     -0.524064
     23 C9          9.0630   -1.6560   -0.9610 c3        1 MOL     -0.390383
     24 C10         8.1690   -2.8200   -1.5900 c3        1 MOL      0.066518
     25 C11         7.3610   -3.4890   -0.5000 c3        1 MOL      0.035933
     26 C12         6.3740   -4.5350   -1.0880 c3        1 MOL      0.129653
     27 N3          5.8680   -5.3880    0.0270 n4        1 MOL     -0.297427
     28 H8         10.2860    0.3290    0.0360 hn        1 MOL      0.283427
     29 H9          7.7810    0.0340   -1.3750 h1        1 MOL      0.091206
     30 H10         9.6770   -2.0800   -0.1690 hc        1 MOL      0.155086
     31 H11         9.7410   -1.3120   -1.7560 hc        1 MOL      0.155086
     32 H12         8.8710   -3.5350   -2.0380 hc        1 MOL      0.014723
     33 H13         7.4890   -2.3620   -2.3150 hc        1 MOL      0.014723
     34 H14         6.6950   -2.8060    0.0240 hc        1 MOL      0.011290
     35 H15         8.0340   -3.9950    0.1870 hc        1 MOL      0.011290
     36 H16         6.8310   -5.0700   -1.9250 hx        1 MOL      0.020373
     37 H17         5.4660   -4.0680   -1.4600 hx        1 MOL      0.020373
     38 H18         5.5530   -4.7810    0.7700 hn        1 MOL      0.310694
     39 H19         5.1550   -6.0490   -0.2420 hn        1 MOL      0.310694
     40 H20         6.5430   -5.9250    0.5520 hn        1 MOL      0.310694
     41 N4          5.9680   -0.2290    0.3100 n         1 MOL     -0.349669
     42 C13         4.8400   -0.4080    1.2410 c3        1 MOL      0.075324
     43 C14         3.5550   -0.4480    0.3860 c         1 MOL      0.411747
     44 O6          3.4680    0.0580   -0.7420 o         1 MOL     -0.461094
     45 C15         4.8020    0.7300    2.3360 c3        1 MOL     -0.211362
     46 C16         5.1860    2.0790    1.6220 c         1 MOL      0.599647
     47 O7          4.6230    2.5510    0.6820 o         1 MOL     -0.664661
     48 O8          6.1480    2.6510    2.1140 o         1 MOL     -0.664661
     49 H21         5.7700    0.0120   -0.6520 hn        1 MOL      0.183420
     50 H22         5.0150   -1.3190    1.8140 h1        1 MOL      0.080162
     51 H23         5.6020    0.5060    3.0430 hc        1 MOL      0.091239
     52 H24         3.8150    0.7440    2.7830 hc        1 MOL      0.091239
     53 N5          2.4450   -1.0090    0.8480 n         1 MOL     -0.327158
     54 C17         2.3420   -1.7690    2.1270 c3        1 MOL     -0.190537
     55 C18         2.6680   -3.2460    1.9200 c         1 MOL      0.590027
     56 O9          3.0480   -3.7620    0.9040 o         1 MOL     -0.583525
     57 H25         1.6340   -0.9080    0.2430 hn        1 MOL      0.300262
     58 H26         1.3530   -1.6670    2.5660 h1        1 MOL      0.118021
     59 H27         3.0780   -1.4680    2.8710 h1        1 MOL      0.118021
     60 N6          2.3130   -4.0630    2.9050 n         1 MOL     -0.356325
     61 C19         2.4170   -5.5500    2.9650 c3        1 MOL     -0.085575
     62 C20         1.5500   -6.1320    1.7560 c         1 MOL      0.495157
     63 O10         1.9780   -6.9530    0.9580 o         1 MOL     -0.532859
     64 C21         2.0340   -6.1250    4.3190 c3        1 MOL     -0.206050
     65 C22         2.8390   -5.4930    5.4940 c         1 MOL      0.732810
     66 O11         2.1890   -4.9140    6.4010 o         1 MOL     -0.701868
     67 O12         4.0740   -5.6120    5.5260 o         1 MOL     -0.701868
     68 H28         1.9220   -3.5450    3.6840 hn        1 MOL      0.253207
     69 H29         3.4510   -5.8490    2.7590 h1        1 MOL      0.055886
     70 H30         2.2260   -7.1920    4.4200 hc        1 MOL      0.054491
     71 H31         0.9960   -5.9090    4.5630 hc        1 MOL      0.054491
     72 N7          0.3830   -5.5930    1.5300 n         1 MOL     -0.296305
     73 C23        -0.4660   -5.7540    0.3280 c3        1 MOL     -0.088189
     74 C24        -0.1610   -5.0630   -1.0150 c         1 MOL      0.503453
     75 O13        -0.8970   -5.3220   -2.0010 o         1 MOL     -0.549158
     76 H32         0.0860   -4.8390    2.1330 hn        1 MOL      0.267792
     77 H33        -1.4160   -5.3300    0.6720 h1        1 MOL      0.083245
     78 H34        -0.5380   -6.8090    0.0590 h1        1 MOL      0.083245
     79 N8          0.8000   -4.1570   -1.0670 n         1 MOL     -0.214141
     80 C25         0.9290   -3.2150   -2.1780 c3        1 MOL      0.025216
     81 C26         0.2070   -1.8620   -1.9480 c         1 MOL      0.195667
     82 O14        -0.1120   -1.5880   -0.8170 o         1 MOL     -0.506984
     83 C27         2.3880   -2.9570   -2.5300 c3        1 MOL      0.450524
     84 C28         3.1900   -4.2420   -2.8950 c3        1 MOL     -0.533358
     85 O15         2.5020   -2.2120   -3.7250 oh        1 MOL     -0.633363
     86 H35         1.4320   -4.0060   -0.2880 hn        1 MOL      0.161744
     87 H36         0.4560   -3.6100   -3.0710 h1        1 MOL      0.092679
     88 H37         2.8400   -2.4370   -1.6910 h1        1 MOL     -0.064900
     89 H38         3.4210   -1.9720   -3.8320 ho        1 MOL      0.417403
     90 H39         2.5480   -4.6860   -3.6580 hc        1 MOL      0.133998
     91 H40         4.1310   -3.8600   -3.2670 hc        1 MOL      0.133998
     92 H41         3.4390   -4.9140   -2.0660 hc        1 MOL      0.133998
     93 N9          0.0180   -0.9820   -2.8960 n         1 MOL     -0.047846
     94 C29        -0.3840    0.4600   -2.6440 c3        1 MOL     -0.309575
     95 C30        -1.8230    0.5560   -2.0590 c         1 MOL      0.627275
     96 O16        -2.1910    1.5620   -1.5520 o         1 MOL     -0.545589
     97 C31        -0.3280    1.2670   -3.9880 c3        1 MOL      0.286329
     98 C32         0.8840    1.0170   -4.8590 c3        1 MOL     -0.057616
     99 C33        -0.5640    2.7720   -3.8690 c3        1 MOL     -0.308650
    100 C34         2.2140    1.5990   -4.3600 c3        1 MOL     -0.018575
    101 H42         0.1000   -1.2920   -3.8540 hn        1 MOL      0.230871
    102 H43         0.3600    0.8840   -1.9650 h1        1 MOL      0.159839
    103 H44        -1.1760    0.8390   -4.5230 hc        1 MOL     -0.038945
    104 H45         0.7890    1.4710   -5.8440 hc        1 MOL      0.008466
    105 H46         0.9270   -0.0620   -5.0130 hc        1 MOL      0.008466
    106 H47         0.0920    3.2550   -3.1480 hc        1 MOL      0.089198
    107 H48        -0.4480    3.2830   -4.8370 hc        1 MOL      0.089198
    108 H49        -1.5730    2.9700   -3.5130 hc        1 MOL      0.089198
    109 H50         2.2320    2.6730   -4.1690 hc        1 MOL     -0.005187
    110 H51         2.5120    1.0370   -3.4730 hc        1 MOL     -0.005187
    111 H52         2.9460    1.4110   -5.1420 hc        1 MOL     -0.005187
    112 N10        -2.6390   -0.4450   -2.2110 n         1 MOL     -0.393502
    113 C35        -3.8530   -0.6610   -1.3310 c3        1 MOL     -0.036629
    114 C36        -5.0000   -1.2330   -2.0840 c         1 MOL      0.651766
    115 O17        -4.7650   -1.9370   -3.1060 o         1 MOL     -0.550783
    116 C37        -3.5590   -1.6340   -0.1000 c3        1 MOL      0.248274
    117 C38        -3.1870   -3.1160   -0.3880 c3        1 MOL     -0.442087
    118 O18        -2.5040   -1.1600    0.7980 oh        1 MOL     -0.633018
    119 H53        -2.2420   -1.2740   -2.6390 hn        1 MOL      0.198036
    120 H54        -4.2890    0.2460   -0.9040 h1        1 MOL      0.103366
    121 H55        -4.4100   -1.5350    0.5780 h1        1 MOL      0.088946
    122 H56        -1.6540   -1.1760    0.3500 ho        1 MOL      0.412750
    123 H57        -2.9890   -3.6400    0.5570 hc        1 MOL      0.133418
    124 H58        -3.9820   -3.6090   -0.9430 hc        1 MOL      0.133418
    125 H59        -2.4120   -3.0040   -1.1340 hc        1 MOL      0.133418
    126 N11        -6.2210   -0.9600   -1.6560 n         1 MOL     -0.618859
    127 C39        -7.4460   -1.6540   -2.1850 c3        1 MOL      0.060162
    128 C40        -8.6330   -0.7580   -2.0750 c         1 MOL      0.633072
    129 O19        -9.2100   -0.6320   -3.1620 o         1 MOL     -0.560970
    130 C41        -7.7000   -3.0490   -1.5080 c3        1 MOL      0.292926
    131 C42        -9.0260   -3.6150   -1.9750 c3        1 MOL     -0.645190
    132 O20        -7.6640   -2.8920   -0.0880 oh        1 MOL     -0.660776
    133 H60        -6.2980   -0.4170   -0.8070 hn        1 MOL      0.313326
    134 H61        -7.3750   -1.8870   -3.2520 h1        1 MOL      0.095741
    135 H62        -6.9030   -3.6950   -1.8780 h1        1 MOL      0.054485
    136 H63        -7.8290   -3.7710    0.2620 ho        1 MOL      0.412996
    137 H64        -8.9810   -3.5800   -3.0600 hc        1 MOL      0.175545
    138 H65        -9.0170   -4.6540   -1.6230 hc        1 MOL      0.175545
    139 H66        -9.8420   -3.0230   -1.5580 hc        1 MOL      0.175545
    140 N12        -8.9750   -0.1920   -0.9240 n         1 MOL     -0.431264
    141 C43       -10.0310    0.7910   -0.7020 c3        1 MOL      0.034213
    142 C44        -9.5890    1.8200    0.3980 c         1 MOL      0.611451
    143 O21        -8.8430    1.4360    1.2630 o         1 MOL     -0.509584
    144 C45       -11.3780    0.1530   -0.3450 c3        1 MOL     -0.138686
    145 C46       -11.4140   -1.0740    0.5920 c3        1 MOL      0.050472
    146 C47       -12.8480   -1.4040    1.1230 c3        1 MOL     -0.166594
    147 C48       -13.0370   -2.6250    1.9500 c3        1 MOL      0.083971
    148 N13       -12.9050   -3.9070    1.2220 n4        1 MOL     -0.256911
    149 H67        -8.3460   -0.3360   -0.1440 hn        1 MOL      0.259196
    150 H68       -10.2440    1.2010   -1.6950 h1        1 MOL      0.063211
    151 H69       -11.8010   -0.1860   -1.2830 hc        1 MOL      0.053751
    152 H70       -12.0200    0.9510    0.0330 hc        1 MOL      0.053751
    153 H71       -10.8130   -0.9050    1.4900 hc        1 MOL      0.013801
    154 H72       -10.9490   -1.9330    0.1110 hc        1 MOL      0.013801
    155 H73       -13.5660   -1.5250    0.3200 hc        1 MOL      0.088742
    156 H74       -13.1710   -0.5700    1.7450 hc        1 MOL      0.088742
    157 H75       -13.9920   -2.5130    2.4540 hx        1 MOL      0.069616
    158 H76       -12.3300   -2.8720    2.7380 hx        1 MOL      0.069616
    159 H77       -13.5870   -3.9900    0.4760 hn        1 MOL      0.227375
    160 H78       -11.9800   -4.0470    0.8330 hn        1 MOL      0.227375
    161 H79       -12.9670   -4.6410    1.9090 hn        1 MOL      0.227375
    162 N14       -10.0840    3.0560    0.3950 n         1 MOL     -0.575992
    163 C49        -9.9820    4.0250    1.4620 c3        1 MOL      0.341655
    164 C50        -8.5400    4.2760    1.9230 c         1 MOL      0.357893
    165 O22        -8.3590    4.4170    3.1240 o         1 MOL     -0.526513
    166 C51       -10.6610    5.3110    1.0580 c3        1 MOL     -0.136055
    167 C52       -11.0460    6.0730    2.3620 c3        1 MOL     -0.313494
    168 C53       -11.7920    7.2690    1.8450 c         1 MOL      0.767197
    169 O23       -13.0490    7.3050    1.8100 o         1 MOL     -0.656533
    170 O24       -11.1390    8.2670    1.4980 o         1 MOL     -0.656533
    171 H80       -10.8050    3.2310   -0.2970 hn        1 MOL      0.275704
    172 H81       -10.5030    3.6410    2.3470 h1        1 MOL      0.025954
    173 H82       -11.5470    5.0150    0.4920 hc        1 MOL      0.063747
    174 H83       -10.1750    5.9270    0.3080 hc        1 MOL      0.063747
    175 H84       -10.1720    6.4340    2.8970 hc        1 MOL      0.092521
    176 H85       -11.6440    5.4510    3.0280 hc        1 MOL      0.092521
    177 N15        -7.4560    4.4140    1.1290 n         1 MOL     -0.345801
    178 C54        -7.4190    4.4840   -0.3800 c3        1 MOL      0.012779
    179 H86        -7.8780    3.5870   -0.7960 h1        1 MOL      0.036542
    180 H87        -7.9690    5.3630   -0.7170 h1        1 MOL      0.036542
    181 H88        -6.3840    4.5500   -0.7160 h1        1 MOL      0.036542
    182 H89        -6.5300    4.3440    1.5300 hn        1 MOL      0.298739
    183 Ca1         6.3160    4.5290    0.3860 Ca        1 MOL      1.760461
    184 O25         6.1990    5.7170    2.8260 oh        1 MOL     -0.894024
    185 H90         6.9760    5.7880    3.3740 ho        1 MOL      0.440636
    186 H91         5.4880    6.1000    3.3510 ho        1 MOL      0.440636
    187 O26         5.0440    3.6980   -1.9220 oh        1 MOL     -0.894024
    188 H92         4.2380    3.2100   -2.0470 ho        1 MOL      0.440636
    189 H93         5.6070    3.4280   -2.6560 ho        1 MOL      0.440636
    190 O27         3.8410    5.5090    0.7050 oh        1 MOL     -0.894024
    191 H94         3.0230    5.0860    0.4520 ho        1 MOL      0.440636
    192 H95         3.5770    6.2690    1.2260 ho        1 MOL      0.440636
@<TRIPOS>BOND
     1    1    2 1   
     2    1    4 1   
     3    1    5 1   
     4    1    6 1   
     5    2    3 2   
     6    2    7 1   
     7    7    8 1   
     8    7   15 1   
     9    8    9 1   
    10    8   11 1   
    11    8   16 1   
    12    9   10 2   
    13    9   19 1   
    14   11   12 1   
    15   11   17 1   
    16   11   18 1   
    17   12   13 1   
    18   12   14 1   
    19   19   20 1   
    20   19   28 1   
    21   20   21 1   
    22   20   23 1   
    23   20   29 1   
    24   21   22 2   
    25   21   41 1   
    26   23   24 1   
    27   23   30 1   
    28   23   31 1   
    29   24   25 1   
    30   24   32 1   
    31   24   33 1   
    32   25   26 1   
    33   25   34 1   
    34   25   35 1   
    35   26   27 1   
    36   26   36 1   
    37   26   37 1   
    38   27   38 1   
    39   27   39 1   
    40   27   40 1   
    41   41   42 1   
    42   41   49 1   
    43   42   43 1   
    44   42   45 1   
    45   42   50 1   
    46   43   44 2   
    47   43   53 1   
    48   45   46 1   
    49   45   51 1   
    50   45   52 1   
    51   46   47 1   
    52   46   48 1   
    53   53   54 1   
    54   53   57 1   
    55   54   55 1   
    56   54   58 1   
    57   54   59 1   
    58   55   56 2   
    59   55   60 1   
    60   60   61 1   
    61   60   68 1   
    62   61   62 1   
    63   61   64 1   
    64   61   69 1   
    65   62   63 2   
    66   62   72 1   
    67   64   65 1   
    68   64   70 1   
    69   64   71 1   
    70   65   66 1   
    71   65   67 1   
    72   72   73 1   
    73   72   76 1   
    74   73   74 1   
    75   73   77 1   
    76   73   78 1   
    77   74   75 2   
    78   74   79 1   
    79   79   80 1   
    80   79   86 1   
    81   80   81 1   
    82   80   83 1   
    83   80   87 1   
    84   81   82 2   
    85   81   93 1   
    86   83   84 1   
    87   83   85 1   
    88   83   88 1   
    89   84   90 1   
    90   84   91 1   
    91   84   92 1   
    92   85   89 1   
    93   93   94 1   
    94   93  101 1   
    95   94   95 1   
    96   94   97 1   
    97   94  102 1   
    98   95   96 2   
    99   95  112 1   
   100   97   98 1   
   101   97   99 1   
   102   97  103 1   
   103   98  100 1   
   104   98  104 1   
   105   98  105 1   
   106   99  106 1   
   107   99  107 1   
   108   99  108 1   
   109  100  109 1   
   110  100  110 1   
   111  100  111 1   
   112  112  113 1   
   113  112  119 1   
   114  113  114 1   
   115  113  116 1   
   116  113  120 1   
   117  114  115 2   
   118  114  126 1   
   119  116  117 1   
   120  116  118 1   
   121  116  121 1   
   122  117  123 1   
   123  117  124 1   
   124  117  125 1   
   125  118  122 1   
   126  126  127 1   
   127  126  133 1   
   128  127  128 1   
   129  127  130 1   
   130  127  134 1   
   131  128  129 2   
   132  128  140 1   
   133  130  131 1   
   134  130  132 1   
   135  130  135 1   
   136  131  137 1   
   137  131  138 1   
   138  131  139 1   
   139  132  136 1   
   140  140  141 1   
   141  140  149 1   
   142  141  142 1   
   143  141  144 1   
   144  141  150 1   
   145  142  143 2   
   146  142  162 1   
   147  144  145 1   
   148  144  151 1   
   149  144  152 1   
   150  145  146 1   
   151  145  153 1   
   152  145  154 1   
   153  146  147 1   
   154  146  155 1   
   155  146  156 1   
   156  147  148 1   
   157  147  157 1   
   158  147  158 1   
   159  148  159 1   
   160  148  160 1   
   161  148  161 1   
   162  162  163 1   
   163  162  171 1   
   164  163  164 1   
   165  163  166 1   
   166  163  172 1   
   167  164  165 2   
   168  164  177 1   
   169  166  167 1   
   170  166  173 1   
   171  166  174 1   
   172  167  168 1   
   173  167  175 1   
   174  167  176 1   
   175  168  169 1   
   176  168  170 1   
   177  177  178 1   
   178  177  182 1   
   179  178  179 1   
   180  178  180 1   
   181  178  181 1   
   182  184  185 1   
   183  184  186 1   
   184  187  188 1   
   185  187  189 1   
   186  190  191 1   
   187  190  192 1   
@<TRIPOS>SUBSTRUCTURE
     1 MOL         1 TEMP              0 ****  ****    0 ROOT
