@<TRIPOS>MOLECULE
MOL
  181   177     1     0     0
SMALL
resp


@<TRIPOS>ATOM
      1 C1          0.7620    7.1350   -2.2300 c3        1 MOL     -0.393776
      2 C2          2.0770    6.9810   -1.5230 c         1 MOL      0.681067
      3 O1          2.3250    7.6410   -0.4650 o         1 MOL     -0.585979
      4 H1         -0.0510    6.9150   -1.5380 hc        1 MOL      0.100957
      5 H2          0.6620    8.1570   -2.5940 hc        1 MOL      0.100957
      6 H3          0.7180    6.4430   -3.0720 hc        1 MOL      0.100957
      7 N1          3.0460    6.1950   -2.0940 n         1 MOL     -0.574830
      8 C3          4.2650    5.7990   -1.4150 c3        1 MOL      0.262591
      9 C4          4.1080    4.7830   -0.3390 c         1 MOL      0.648813
     10 O2          3.5710    3.7070   -0.5290 o         1 MOL     -0.614933
     11 C5          5.4220    5.5460   -2.4340 c3        1 MOL     -0.436328
     12 C6          6.8480    5.8080   -1.7890 c         1 MOL      0.752702
     13 O3          7.8340    5.1660   -2.1600 o         1 MOL     -0.723926
     14 O4          6.8980    6.6370   -0.8240 o         1 MOL     -0.723926
     15 H4          2.8730    5.9170   -3.0480 hn        1 MOL      0.286604
     16 H5          4.5640    6.6890   -0.8750 h1        1 MOL      0.012261
     17 H6          5.2820    6.2430   -3.2650 hc        1 MOL      0.090964
     18 H7          5.4830    4.4870   -2.6750 hc        1 MOL      0.090964
     19 N2          4.6450    5.0480    0.8630 n         1 MOL     -0.574359
     20 C7          4.6330    4.0780    1.9940 c3        1 MOL      0.426662
     21 C8          3.2520    3.5480    2.3970 c         1 MOL      0.365139
     22 O5          2.2630    4.2780    2.2950 o         1 MOL     -0.571336
     23 C9          5.2970    4.7120    3.2540 c3        1 MOL     -0.317010
     24 H8          4.9220    5.9800    1.1470 hn        1 MOL      0.294034
     25 H9          5.1880    3.2060    1.6560 h1        1 MOL      0.028763
     26 H10         4.9090    5.6210    3.7150 hc        1 MOL      0.083731
     27 H11         5.2160    4.0390    4.1020 hc        1 MOL      0.083731
     28 H12         6.3380    4.8090    2.9410 hc        1 MOL      0.083731
     29 N3          3.1370    2.3860    2.9600 n         1 MOL     -0.441686
     30 C10         4.1100    1.3520    3.3400 c3        1 MOL      0.325030
     31 C11         4.4850    0.3430    2.2440 c         1 MOL      0.275333
     32 O6          3.8340    0.2670    1.2080 o         1 MOL     -0.324863
     33 C12         3.7820    0.6430    4.6270 c3        1 MOL     -0.319517
     34 C13         2.3520   -0.0890    4.5760 c         1 MOL      0.595579
     35 O7          1.6790   -0.0250    3.5500 o         1 MOL     -0.619772
     36 O8          1.8700   -0.5430    5.6450 o         1 MOL     -0.619772
     37 H13         2.1900    2.0860    3.1580 hn        1 MOL      0.350545
     38 H14         5.0440    1.8850    3.4690 h1        1 MOL     -0.065510
     39 H15         3.7970    1.3300    5.4720 hc        1 MOL      0.050017
     40 H16         4.5330   -0.1200    4.7730 hc        1 MOL      0.050017
     41 N4          5.4650   -0.4850    2.5060 n         1 MOL     -0.375577
     42 C14         5.9630   -1.5320    1.6150 c3        1 MOL     -0.055063
     43 C15         7.1250   -1.0550    0.6720 c         1 MOL      0.504585
     44 O9          7.6700    0.0130    0.8080 o         1 MOL     -0.478577
     45 H17         6.0110   -0.2540    3.3190 hn        1 MOL      0.298737
     46 H18         5.1240   -1.8900    1.0200 h1        1 MOL      0.052653
     47 H19         6.3930   -2.3660    2.1770 h1        1 MOL      0.052653
     48 N5          7.4390   -1.7700   -0.4220 n         1 MOL     -0.436336
     49 C16         6.9380   -3.0750   -0.9060 c3        1 MOL      0.062571
     50 C17         5.7790   -2.8710   -1.9130 c         1 MOL      0.516470
     51 O10         5.3730   -1.7550   -2.1990 o         1 MOL     -0.419101
     52 C18         8.1160   -3.8790   -1.3960 c3        1 MOL     -0.293566
     53 C19         8.6970   -3.3890   -2.7140 c         1 MOL      0.728323
     54 N6          8.6910   -4.2850   -3.6460 n         1 MOL     -0.809041
     55 O11         9.1780   -2.3180   -2.8140 o         1 MOL     -0.513597
     56 H20         8.2320   -1.4180   -0.9360 hn        1 MOL      0.292845
     57 H21         6.5160   -3.6350   -0.0660 h1        1 MOL      0.073549
     58 H22         7.7860   -4.9150   -1.4530 hc        1 MOL      0.070076
     59 H23         8.9300   -3.8100   -0.6720 hc        1 MOL      0.070076
     60 H24         8.1110   -5.0860   -3.4870 hn        1 MOL      0.368835
     61 H25         9.1050   -4.0650   -4.5430 hn        1 MOL      0.368835
     62 N7          5.2660   -4.0290   -2.4120 n         1 MOL     -0.428775
     63 C20         4.1230   -4.1460   -3.2430 c3        1 MOL     -0.304478
     64 C21         2.8030   -4.3350   -2.5340 c         1 MOL      0.646344
     65 O12         1.8220   -4.2020   -3.1970 o         1 MOL     -0.582131
     66 H26         5.6680   -4.8360   -1.9650 hn        1 MOL      0.274458
     67 H27         4.2120   -5.0130   -3.9020 h1        1 MOL      0.156836
     68 H28         4.0420   -3.2540   -3.8760 h1        1 MOL      0.156836
     69 N8          2.7890   -4.6390   -1.2920 n         1 MOL     -0.375690
     70 C22         1.5760   -5.0920   -0.5820 c3        1 MOL     -0.031704
     71 C23         0.5080   -4.0880   -0.3330 c         1 MOL      0.511596
     72 O13         0.8160   -2.9210   -0.0410 o         1 MOL     -0.584547
     73 C24         2.0950   -5.7410    0.7440 c3        1 MOL      0.224462
     74 C25         1.0060   -5.8840    1.8010 c3        1 MOL     -0.222483
     75 O14         2.7190   -6.9830    0.5140 oh        1 MOL     -0.653237
     76 H29         3.6420   -4.6770   -0.7580 hn        1 MOL      0.239149
     77 H30         1.2250   -5.9440   -1.1570 h1        1 MOL      0.117190
     78 H31         2.9010   -5.1320    1.1610 h1        1 MOL      0.010448
     79 H32         3.1580   -7.3100    1.3000 ho        1 MOL      0.409944
     80 H33         0.4760   -4.9610    2.0360 hc        1 MOL      0.079537
     81 H34         0.2820   -6.6290    1.4610 hc        1 MOL      0.079537
     82 H35         1.3190   -6.3250    2.7420 hc        1 MOL      0.079537
     83 N9         -0.7580   -4.4200   -0.5550 n         1 MOL     -0.265102
     84 C26        -1.9840   -3.6290   -0.6210 c3        1 MOL     -0.017049
     85 C27        -2.8230   -3.6790    0.6950 c         1 MOL      0.331333
     86 O15        -2.9570   -4.7580    1.3100 o         1 MOL     -0.570025
     87 C28        -2.8350   -4.2280   -1.7910 c3        1 MOL      0.139874
     88 C29        -4.2430   -3.5420   -1.8460 c3        1 MOL     -0.052557
     89 C30        -2.1750   -3.9970   -3.1650 c3        1 MOL     -0.169905
     90 C31        -5.2940   -3.9820   -2.8300 c3        1 MOL     -0.158006
     91 H36        -0.9030   -5.3970   -0.7410 hn        1 MOL      0.207059
     92 H37        -1.7760   -2.5670   -0.7240 h1        1 MOL      0.153287
     93 H38        -2.9150   -5.3010   -1.6060 hc        1 MOL      0.010064
     94 H39        -4.1100   -2.4830   -2.0760 hc        1 MOL      0.037596
     95 H40        -4.6550   -3.5110   -0.8310 hc        1 MOL      0.037596
     96 H41        -2.0290   -2.9410   -3.3660 hc        1 MOL      0.034376
     97 H42        -1.1970   -4.4840   -3.1080 hc        1 MOL      0.034376
     98 H43        -2.7370   -4.4770   -3.9760 hc        1 MOL      0.034376
     99 H44        -5.5670   -5.0400   -2.8150 hc        1 MOL      0.029666
    100 H45        -6.1610   -3.3610   -2.6280 hc        1 MOL      0.029666
    101 H46        -5.0790   -3.7370   -3.8650 hc        1 MOL      0.029666
    102 N10        -3.2460   -2.5190    1.1270 n         1 MOL      0.148989
    103 C32        -3.8110   -2.1890    2.4140 c3        1 MOL     -0.019779
    104 C33        -5.2220   -1.5190    2.2670 c         1 MOL      0.479251
    105 O16        -5.9760   -1.6370    3.2320 o         1 MOL     -0.548835
    106 C34        -2.8480   -1.2500    3.0800 c3        1 MOL     -0.083660
    107 C35        -1.5270   -1.8690    3.4230 c         1 MOL      0.671706
    108 O17        -1.4010   -2.3700    4.5470 o         1 MOL     -0.669825
    109 O18        -0.6000   -1.7810    2.5830 o         1 MOL     -0.669825
    110 H47        -2.9650   -1.7250    0.5780 hn        1 MOL     -0.216767
    111 H48        -3.9180   -3.1570    2.9040 h1        1 MOL      0.081578
    112 H49        -3.2800   -0.9340    4.0330 hc        1 MOL      0.041818
    113 H50        -2.7660   -0.3360    2.4800 hc        1 MOL      0.041818
    114 N11        -5.5010   -0.8670    1.1570 n         1 MOL     -0.613220
    115 C36        -6.6780   -0.0210    1.0550 c3        1 MOL      0.619950
    116 C37        -6.3710    1.3470    0.3630 c         1 MOL      0.002428
    117 O19        -6.8730    1.5820   -0.7150 o         1 MOL     -0.396695
    118 C38        -7.6920   -0.8400    0.2420 c3        1 MOL     -0.293334
    119 C39        -9.1970   -0.5030    0.1680 ca        1 MOL      0.053135
    120 C40       -10.0160   -0.9970   -0.8840 ca        1 MOL     -0.085642
    121 C41        -9.7980    0.3810    1.0470 ca        1 MOL     -0.085642
    122 C42       -11.4030   -0.7260   -0.8940 ca        1 MOL     -0.136545
    123 C43       -11.1610    0.6560    1.0400 ca        1 MOL     -0.136545
    124 C44       -12.0030    0.1010    0.0490 ca        1 MOL     -0.142448
    125 H51        -4.7720   -0.6780    0.4820 hn        1 MOL      0.276771
    126 H52        -7.0810    0.1480    2.0620 h1        1 MOL     -0.044198
    127 H53        -7.7180   -1.8150    0.7310 hc        1 MOL      0.098430
    128 H54        -7.1930   -0.8980   -0.7300 hc        1 MOL      0.098430
    129 H55        -9.6240   -1.7160   -1.5860 ha        1 MOL      0.083066
    130 H56        -9.1450    0.7880    1.8140 ha        1 MOL      0.083066
    131 H57       -12.0080   -1.1850   -1.6540 ha        1 MOL      0.100357
    132 H58       -11.5890    1.2700    1.8260 ha        1 MOL      0.100357
    133 H59       -13.0410    0.3810   -0.1070 ha        1 MOL      0.109128
    134 N12        -5.4740    2.1600    0.9780 n         1 MOL      0.185096
    135 C45        -5.0470    3.4050    0.4450 c3        1 MOL     -0.164219
    136 C46        -4.7020    3.4670   -1.0690 c         1 MOL      0.387501
    137 O20        -4.9530    4.4760   -1.7170 o         1 MOL     -0.475556
    138 C47        -3.8580    3.8150    1.3520 c3        1 MOL      0.250472
    139 C48        -4.2830    3.2940    2.6940 c3        1 MOL     -0.307439
    140 C49        -5.0960    2.0160    2.3490 c3        1 MOL     -0.002180
    141 H60        -5.8500    4.1040    0.6770 h1        1 MOL      0.055287
    142 H61        -2.9980    3.2580    0.9900 hc        1 MOL     -0.033934
    143 H62        -3.5870    4.8690    1.2640 hc        1 MOL     -0.033934
    144 H63        -3.4190    3.0140    3.3050 hc        1 MOL      0.096389
    145 H64        -4.9860    4.0120    3.1060 hc        1 MOL      0.096389
    146 H65        -4.4330    1.1460    2.3300 h1        1 MOL      0.041000
    147 H66        -5.9480    1.9020    3.0240 h1        1 MOL      0.041000
    148 N13        -4.0530    2.3920   -1.5520 n         1 MOL     -0.225242
    149 C50        -3.6820    2.3530   -2.9780 c3        1 MOL     -0.181302
    150 C51        -4.9600    2.5050   -3.8980 c         1 MOL      0.407140
    151 O21        -5.1280    3.4230   -4.6380 o         1 MOL     -0.501679
    152 C52        -2.8640    1.0910   -3.3140 c3        1 MOL      0.187523
    153 C53        -1.6930    0.6080   -2.4030 c3        1 MOL     -0.341330
    154 C54        -2.0960    0.0670   -0.9780 c         1 MOL      0.603265
    155 O22        -1.1760    0.0400   -0.1490 o         1 MOL     -0.624675
    156 O23        -3.3040   -0.1590   -0.5700 o         1 MOL     -0.624675
    157 H67        -3.9190    1.5930   -0.9530 hn        1 MOL      0.302025
    158 H68        -3.0800    3.2390   -3.1620 h1        1 MOL      0.109879
    159 H69        -2.3970    1.2620   -4.2800 hc        1 MOL     -0.031659
    160 H70        -3.6280    0.3350   -3.4380 hc        1 MOL     -0.031659
    161 H71        -1.0200    1.4490   -2.2480 hc        1 MOL      0.114856
    162 H72        -1.2630   -0.2630   -2.9160 hc        1 MOL      0.114856
    163 N14        -5.9040    1.5400   -3.7790 n         1 MOL     -0.163048
    164 C55        -7.2030    1.4910   -4.3980 c3        1 MOL     -0.144423
    165 H73        -7.9590    1.2840   -3.6400 h1        1 MOL      0.067699
    166 H74        -7.4170    2.4500   -4.8710 h1        1 MOL      0.067699
    167 H75        -7.2190    0.7030   -5.1510 h1        1 MOL      0.067699
    168 H76        -5.6100    0.7840   -3.1830 hn        1 MOL      0.231537
    169 Ca1         1.0780   -0.5610    1.0750 Ca        1 MOL      1.675366
    170 O24        -0.7190    1.4810    2.0700 oh        1 MOL     -0.827019
    171 H77        -1.1140    1.1220    1.2710 ho        1 MOL      0.394117
    172 H78        -0.7790    2.4290    1.9620 ho        1 MOL      0.394117
    173 O25         2.6690   -2.4020    2.1140 oh        1 MOL     -0.827019
    174 H79         3.5900   -2.3160    2.3690 ho        1 MOL      0.394117
    175 H80         2.2850   -2.9750    2.7870 ho        1 MOL      0.394117
    176 O26         1.3310    1.8780    0.2370 oh        1 MOL     -0.827019
    177 H81         2.0690    2.4470    0.0450 ho        1 MOL      0.394117
    178 H82         0.6060    2.4710    0.4360 ho        1 MOL      0.394117
    179 O27         2.3190   -0.7530   -1.3920 oh        1 MOL     -0.827019
    180 H83         3.2050   -0.6260   -1.7290 ho        1 MOL      0.394117
    181 H84         1.9260   -1.3830   -1.9990 ho        1 MOL      0.394117
@<TRIPOS>BOND
     1    1    2 1   
     2    1    4 1   
     3    1    5 1   
     4    1    6 1   
     5    2    3 2   
     6    2    7 1   
     7    7    8 1   
     8    7   15 1   
     9    8    9 1   
    10    8   11 1   
    11    8   16 1   
    12    9   10 2   
    13    9   19 1   
    14   11   12 1   
    15   11   17 1   
    16   11   18 1   
    17   12   13 1   
    18   12   14 1   
    19   19   20 1   
    20   19   24 1   
    21   20   21 1   
    22   20   23 1   
    23   20   25 1   
    24   21   22 2   
    25   21   29 1   
    26   23   26 1   
    27   23   27 1   
    28   23   28 1   
    29   29   30 1   
    30   29   37 1   
    31   30   31 1   
    32   30   33 1   
    33   30   38 1   
    34   31   32 2   
    35   31   41 1   
    36   33   34 1   
    37   33   39 1   
    38   33   40 1   
    39   34   35 1   
    40   34   36 1   
    41   41   42 1   
    42   41   45 1   
    43   42   43 1   
    44   42   46 1   
    45   42   47 1   
    46   43   44 2   
    47   43   48 1   
    48   48   49 1   
    49   48   56 1   
    50   49   50 1   
    51   49   52 1   
    52   49   57 1   
    53   50   51 2   
    54   50   62 1   
    55   52   53 1   
    56   52   58 1   
    57   52   59 1   
    58   53   54 1   
    59   53   55 2   
    60   54   60 1   
    61   54   61 1   
    62   62   63 1   
    63   62   66 1   
    64   63   64 1   
    65   63   67 1   
    66   63   68 1   
    67   64   65 2   
    68   64   69 1   
    69   69   70 1   
    70   69   76 1   
    71   70   71 1   
    72   70   73 1   
    73   70   77 1   
    74   71   72 2   
    75   71   83 1   
    76   73   74 1   
    77   73   75 1   
    78   73   78 1   
    79   74   80 1   
    80   74   81 1   
    81   74   82 1   
    82   75   79 1   
    83   83   84 1   
    84   83   91 1   
    85   84   85 1   
    86   84   87 1   
    87   84   92 1   
    88   85   86 2   
    89   85  102 1   
    90   87   88 1   
    91   87   89 1   
    92   87   93 1   
    93   88   90 1   
    94   88   94 1   
    95   88   95 1   
    96   89   96 1   
    97   89   97 1   
    98   89   98 1   
    99   90   99 1   
   100   90  100 1   
   101   90  101 1   
   102  102  103 1   
   103  102  110 1   
   104  103  104 1   
   105  103  106 1   
   106  103  111 1   
   107  104  105 2   
   108  104  114 1   
   109  106  107 1   
   110  106  112 1   
   111  106  113 1   
   112  107  108 1   
   113  107  109 1   
   114  114  115 1   
   115  114  125 1   
   116  115  116 1   
   117  115  118 1   
   118  115  126 1   
   119  116  117 2   
   120  116  134 1   
   121  118  119 1   
   122  118  127 1   
   123  118  128 1   
   124  119  120 ar  
   125  119  121 ar  
   126  120  122 ar  
   127  120  129 1   
   128  121  123 ar  
   129  121  130 1   
   130  122  124 ar  
   131  122  131 1   
   132  123  124 ar  
   133  123  132 1   
   134  124  133 1   
   135  134  135 1   
   136  134  140 1   
   137  135  136 1   
   138  135  138 1   
   139  135  141 1   
   140  136  137 2   
   141  136  148 1   
   142  138  139 1   
   143  138  142 1   
   144  138  143 1   
   145  139  140 1   
   146  139  144 1   
   147  139  145 1   
   148  140  146 1   
   149  140  147 1   
   150  148  149 1   
   151  148  157 1   
   152  149  150 1   
   153  149  152 1   
   154  149  158 1   
   155  150  151 2   
   156  150  163 1   
   157  152  153 1   
   158  152  159 1   
   159  152  160 1   
   160  153  154 1   
   161  153  161 1   
   162  153  162 1   
   163  154  155 1   
   164  154  156 1   
   165  163  164 1   
   166  163  168 1   
   167  164  165 1   
   168  164  166 1   
   169  164  167 1   
   170  170  171 1   
   171  170  172 1   
   172  173  174 1   
   173  173  175 1   
   174  176  177 1   
   175  176  178 1   
   176  179  180 1   
   177  179  181 1   
@<TRIPOS>SUBSTRUCTURE
     1 MOL         1 TEMP              0 ****  ****    0 ROOT
