@<TRIPOS>MOLECULE
MOL
  201   193     1     0     0
SMALL
resp


@<TRIPOS>ATOM
      1 C1          2.5480    4.9400    2.6990 c3        1 MOL     -0.181007
      2 C2          1.5110    4.8190    1.5060 c         1 MOL      0.576724
      3 O1          1.0760    3.6790    1.3200 o         1 MOL     -0.529315
      4 H1          3.0830    3.9970    2.8120 hc        1 MOL      0.035575
      5 H2          3.2590    5.7370    2.4830 hc        1 MOL      0.035575
      6 H3          2.0160    5.1670    3.6220 hc        1 MOL      0.035575
      7 N1          1.3850    5.8120    0.6020 n         1 MOL     -0.429843
      8 C3          0.5690    5.6840   -0.6160 c3        1 MOL     -0.013343
      9 C4         -0.8990    5.4550   -0.3260 c         1 MOL      0.739741
     10 O2         -1.5740    4.5790   -0.8510 o         1 MOL     -0.474863
     11 C5          1.2100    4.7960   -1.7040 c3        1 MOL     -0.516087
     12 C6          0.6210    5.0530   -3.0950 c         1 MOL      0.764388
     13 O3          0.0140    4.0750   -3.6210 o         1 MOL     -0.650237
     14 O4          0.7130    6.1750   -3.6150 o         1 MOL     -0.650237
     15 H4          1.7340    6.7310    0.8340 hn        1 MOL      0.282951
     16 H5          0.5520    6.6880   -1.0360 h1        1 MOL      0.047482
     17 H6          1.1880    3.7460   -1.4470 hc        1 MOL      0.169161
     18 H7          2.2290    5.1550   -1.8390 hc        1 MOL      0.169161
     19 N2         -1.3370    6.2720    0.6070 n         1 MOL     -0.496583
     20 C7         -2.7040    6.2760    1.1570 c3        1 MOL     -0.179834
     21 C8         -3.7540    6.7990    0.1250 c         1 MOL      0.374123
     22 O5         -3.3360    7.4830   -0.8610 o         1 MOL     -0.514802
     23 C9         -2.8100    6.9490    2.5640 c3        1 MOL     -0.004898
     24 C10        -2.5450    8.4190    2.4450 c3        1 MOL      0.057944
     25 C11        -1.6380    6.3870    3.4680 c3        1 MOL     -0.123705
     26 C12        -2.5800    9.2170    3.7190 c3        1 MOL     -0.063944
     27 H8         -0.7420    7.0610    0.8420 hn        1 MOL      0.302814
     28 H9         -2.9330    5.2470    1.4330 h1        1 MOL      0.135982
     29 H10        -3.7690    6.8970    3.0840 hc        1 MOL      0.107313
     30 H11        -3.3690    8.8670    1.8880 hc        1 MOL      0.001972
     31 H12        -1.5990    8.5730    1.9300 hc        1 MOL      0.001972
     32 H13        -0.6660    6.7370    3.1210 hc        1 MOL      0.025264
     33 H14        -1.8150    6.5130    4.5370 hc        1 MOL      0.025264
     34 H15        -1.5340    5.3180    3.3000 hc        1 MOL      0.025264
     35 H16        -3.5550    9.1760    4.1980 hc        1 MOL     -0.000368
     36 H17        -1.7790    9.0280    4.4440 hc        1 MOL     -0.000368
     37 H18        -2.4180   10.2800    3.5260 hc        1 MOL     -0.000368
     38 N3         -5.0610    6.5160    0.2210 n         1 MOL     -0.244547
     39 C13        -5.7210    5.4810    0.9860 c3        1 MOL     -0.026927
     40 C14        -5.5510    4.1710    0.1670 c         1 MOL      0.526615
     41 O6         -5.5660    3.1040    0.7350 o         1 MOL     -0.569004
     42 C15        -7.1800    5.7870    1.2400 c3        1 MOL     -0.145095
     43 C16        -8.1040    6.1920    0.0270 c         1 MOL      0.653703
     44 O7         -7.6090    6.7260   -0.9830 o         1 MOL     -0.637063
     45 O8         -9.3340    6.0250    0.0670 o         1 MOL     -0.637063
     46 H19        -5.6870    6.9810   -0.4310 hn        1 MOL      0.195415
     47 H20        -5.2540    5.5600    1.9640 h1        1 MOL      0.037855
     48 H21        -7.2780    6.5910    1.9780 hc        1 MOL      0.037274
     49 H22        -7.6910    4.9890    1.7660 hc        1 MOL      0.037274
     50 N4         -5.3560    4.2790   -1.1560 n         1 MOL     -0.294137
     51 C17        -5.1760    3.1830   -2.0940 c3        1 MOL     -0.102372
     52 C18        -6.4130    2.2200   -2.1770 c         1 MOL      0.430682
     53 O9         -7.4670    2.4800   -1.6110 o         1 MOL     -0.475897
     54 H23        -5.3700    5.2330   -1.4930 hn        1 MOL      0.275272
     55 H24        -4.3140    2.6380   -1.6980 h1        1 MOL      0.113948
     56 H25        -4.9060    3.4840   -3.1090 h1        1 MOL      0.113948
     57 N5         -6.3690    1.0780   -2.8550 n         1 MOL     -0.343161
     58 C19        -7.4650    0.1430   -2.9930 c3        1 MOL      0.049903
     59 C20        -7.8760   -0.5290   -1.6390 c         1 MOL      0.352576
     60 O10        -8.9770   -1.0800   -1.6270 o         1 MOL     -0.522113
     61 C21        -7.0120   -0.9960   -3.8820 c3        1 MOL     -0.126725
     62 C22        -5.6830   -1.6220   -3.4350 c         1 MOL      0.658001
     63 O11        -4.6400   -1.1460   -3.9140 o         1 MOL     -0.659071
     64 O12        -5.7460   -2.5410   -2.6030 o         1 MOL     -0.659071
     65 H26        -5.5360    0.9210   -3.4200 hn        1 MOL      0.221850
     66 H27        -8.3390    0.6380   -3.4190 h1        1 MOL      0.078557
     67 H28        -6.8520   -0.6210   -4.8890 hc        1 MOL      0.010288
     68 H29        -7.8030   -1.7480   -3.8800 hc        1 MOL      0.010288
     69 N6         -7.0690   -0.4940   -0.6150 n         1 MOL     -0.016933
     70 C23        -7.3180   -0.9150    0.7350 c3        1 MOL     -0.224028
     71 C24        -7.5280   -2.4040    0.9410 c         1 MOL      0.426723
     72 O13        -8.1270   -2.9000    1.9650 o         1 MOL     -0.547955
     73 H30        -6.1540   -0.1020   -0.8010 hn        1 MOL      0.192211
     74 H31        -8.2030   -0.4800    1.2000 h1        1 MOL      0.114715
     75 H32        -6.4560   -0.6660    1.3460 h1        1 MOL      0.114715
     76 N7         -6.9580   -3.2430    0.0580 n         1 MOL     -0.000194
     77 C25        -6.9900   -4.6980    0.1220 c3        1 MOL      0.045887
     78 C26        -6.2050   -5.3320    1.2770 c         1 MOL      0.485082
     79 O14        -6.4670   -6.4160    1.8280 o         1 MOL     -0.520902
     80 C27        -8.4250   -5.1390   -0.1640 c3        1 MOL     -0.016212
     81 C28        -8.9810   -4.7080   -1.5150 c3        1 MOL     -0.031216
     82 C29        -8.6060   -5.4130   -2.8300 c         1 MOL      0.601183
     83 N8         -7.6250   -4.8650   -3.5510 n         1 MOL     -0.721341
     84 O15        -9.0690   -6.5200   -3.1050 o         1 MOL     -0.612655
     85 H33        -6.4610   -2.8690   -0.7390 hn        1 MOL      0.030374
     86 H34        -6.4600   -5.0810   -0.7480 h1        1 MOL      0.047644
     87 H35        -8.9420   -4.6860    0.6810 hc        1 MOL      0.023220
     88 H36        -8.4930   -6.2180   -0.0330 hc        1 MOL      0.023220
     89 H37        -8.8630   -3.6470   -1.7340 hc        1 MOL     -0.003554
     90 H38       -10.0450   -4.9770   -1.5080 hc        1 MOL     -0.003554
     91 H39        -7.1720   -4.0020   -3.2770 hn        1 MOL      0.335892
     92 H40        -7.3330   -5.3980   -4.3520 hn        1 MOL      0.335892
     93 N9         -5.2250   -4.5300    1.7130 n         1 MOL     -0.439079
     94 C30        -4.5230   -4.7810    2.9650 c3        1 MOL     -0.112244
     95 C31        -2.9710   -4.4490    2.9790 c         1 MOL      0.553146
     96 O16        -2.2940   -4.9330    3.9180 o         1 MOL     -0.585626
     97 C32        -5.1540   -3.9850    4.0910 c3        1 MOL      0.399361
     98 C33        -5.1850   -2.4250    3.8770 c3        1 MOL     -0.329221
     99 C34        -6.5070   -4.4820    4.5490 c3        1 MOL     -0.329221
    100 H41        -4.9040   -3.7750    1.1320 hn        1 MOL      0.256425
    101 H42        -4.5640   -5.8350    3.2580 h1        1 MOL      0.112294
    102 H43        -4.5360   -4.1730    4.9660 hc        1 MOL     -0.065590
    103 H44        -5.9520   -2.1660    3.1470 hc        1 MOL      0.066745
    104 H45        -5.1760   -2.0100    4.8780 hc        1 MOL      0.066745
    105 H46        -4.2050   -2.1690    3.4770 hc        1 MOL      0.066745
    106 H47        -7.3060   -4.2470    3.8400 hc        1 MOL      0.066745
    107 H48        -6.4310   -5.5660    4.6660 hc        1 MOL      0.066745
    108 H49        -6.7340   -4.0790    5.5330 hc        1 MOL      0.066745
    109 N10        -2.4400   -3.7760    1.9870 n         1 MOL     -0.409623
    110 C35        -1.0340   -3.4460    1.8590 c3        1 MOL      0.203532
    111 C36        -0.4150   -3.9350    0.5830 c         1 MOL      0.603566
    112 O17        -1.0940   -4.3690   -0.3500 o         1 MOL     -0.548399
    113 C37        -0.9110   -1.8820    2.0710 c3        1 MOL     -0.305684
    114 C38         0.3500   -1.4540    2.5770 c         1 MOL      0.712180
    115 N11         0.5720   -0.2080    2.7360 n         1 MOL     -0.740997
    116 O18         1.3200   -2.1310    2.7430 o         1 MOL     -0.595296
    117 H50        -3.0710   -3.5240    1.2420 hn        1 MOL      0.240683
    118 H51        -0.3580   -3.9450    2.5430 h1        1 MOL      0.051203
    119 H52        -1.6000   -1.5400    2.8410 hc        1 MOL      0.098835
    120 H53        -1.0770   -1.3620    1.1290 hc        1 MOL      0.098835
    121 H54        -0.1330    0.5210    2.6580 hn        1 MOL      0.338055
    122 H55         1.5320    0.0160    2.9590 hn        1 MOL      0.338055
    123 N12         0.9720   -3.8940    0.5790 n         1 MOL     -0.598040
    124 C39         1.7290   -4.0530   -0.6270 c3        1 MOL      0.231462
    125 C40         3.1590   -4.5150   -0.2130 c         1 MOL      0.548853
    126 O19         3.5330   -4.4580    0.9540 o         1 MOL     -0.534756
    127 C41         1.6690   -2.9690   -1.6360 c3        1 MOL     -0.078640
    128 C42         2.1030   -1.5900   -1.1790 ca        1 MOL      0.100738
    129 C43         1.0960   -0.6460   -0.8010 ca        1 MOL     -0.194876
    130 C44         3.4540   -1.2640   -1.0270 ca        1 MOL     -0.194876
    131 C45         1.4560    0.6340   -0.3000 ca        1 MOL     -0.163283
    132 C46         3.8240    0.0190   -0.4990 ca        1 MOL     -0.163283
    133 C47         2.8340    0.9920   -0.2060 ca        1 MOL      0.239716
    134 O20         3.1290    2.2830    0.1560 oh        1 MOL     -0.495833
    135 H56         1.3460   -3.2630    1.2730 hn        1 MOL      0.308112
    136 H57         1.3650   -4.9560   -1.1050 h1        1 MOL      0.053906
    137 H58         0.6900   -3.0000   -2.1060 hc        1 MOL      0.027141
    138 H59         2.2860   -3.3000   -2.4670 hc        1 MOL      0.027141
    139 H60         0.0300   -0.7750   -0.9370 ha        1 MOL      0.148433
    140 H61         4.2160   -1.9950   -1.2500 ha        1 MOL      0.148433
    141 H62         0.6630    1.3350   -0.0630 ha        1 MOL      0.132644
    142 H63         4.8700    0.2840   -0.4280 ha        1 MOL      0.132644
    143 H64         2.3700    2.6590    0.6060 ho        1 MOL      0.329247
    144 N13         4.0590   -4.8260   -1.1910 n         1 MOL     -0.638379
    145 C48         5.4580   -5.2620   -1.0370 c3        1 MOL      0.233228
    146 C49         6.5070   -4.4080   -1.8140 c         1 MOL      0.462006
    147 O21         6.7770   -4.6780   -3.0140 o         1 MOL     -0.568710
    148 C50         5.5730   -6.7540   -1.3220 c3        1 MOL      0.114136
    149 C51         4.6800   -7.5730   -0.3460 c3        1 MOL     -0.115315
    150 C52         5.0140   -9.0520   -0.4990 c         1 MOL      0.673382
    151 O22         4.2410   -9.7270   -1.2240 o         1 MOL     -0.659724
    152 O23         5.9850   -9.5070    0.1150 o         1 MOL     -0.659724
    153 H65         3.7670   -4.9520   -2.1520 hn        1 MOL      0.322994
    154 H66         5.7510   -5.1330    0.0020 h1        1 MOL     -0.034197
    155 H67         6.6240   -7.0320   -1.2290 hc        1 MOL     -0.023830
    156 H68         5.3420   -6.9240   -2.3720 hc        1 MOL     -0.023830
    157 H69         3.6410   -7.4850   -0.6660 hc        1 MOL      0.017759
    158 H70         4.8840   -7.3440    0.7020 hc        1 MOL      0.017759
    159 N14         7.1330   -3.4660   -1.1990 n         1 MOL     -0.425352
    160 C53         6.7500   -2.8690    0.0560 c3        1 MOL      0.022366
    161 C54         7.3830   -3.6800    1.1970 c         1 MOL      0.801842
    162 O24         8.1620   -4.6150    1.0150 o         1 MOL     -0.601937
    163 C55         7.1670   -1.4060    0.1420 c3        1 MOL      0.090953
    164 C56         8.7470   -1.2640    0.0550 c3        1 MOL     -0.353808
    165 C57         9.0900    0.1940   -0.1880 c         1 MOL      0.885488
    166 O25         9.3120    0.5690   -1.3600 o         1 MOL     -0.644281
    167 O26         9.3180    0.8790    0.8270 o         1 MOL     -0.644281
    168 H71         7.9410   -3.0510   -1.6550 hn        1 MOL      0.303380
    169 H72         5.6610   -2.8830    0.1380 h1        1 MOL      0.012998
    170 H73         6.8160   -0.9290    1.0500 hc        1 MOL     -0.053757
    171 H74         6.6150   -0.9210   -0.6610 hc        1 MOL     -0.053757
    172 H75         9.1980   -1.9490   -0.6600 hc        1 MOL      0.019026
    173 H76         9.1710   -1.4530    1.0400 hc        1 MOL      0.019026
    174 N15         6.9220   -3.3790    2.3860 n         1 MOL     -0.301875
    175 C58         7.2050   -3.9090    3.7260 c3        1 MOL     -0.547747
    176 H77         8.1430   -4.4640    3.7060 h1        1 MOL      0.187430
    177 H78         7.2860   -3.0850    4.4340 h1        1 MOL      0.187430
    178 H79         6.3980   -4.5740    4.0320 h1        1 MOL      0.187430
    179 H80         6.0800   -2.8340    2.2800 hn        1 MOL      0.280584
    180 Ca1         9.6940    3.1650   -0.4240 Ca        1 MOL      1.206722
    181 O27         7.4000    2.5260   -1.8860 oh        1 MOL     -0.620775
    182 H81         6.7530    3.2170   -2.0610 ho        1 MOL      0.298256
    183 H82         6.9200    1.7110   -1.9940 ho        1 MOL      0.298256
    184 O28         7.5980    3.5130    1.4160 oh        1 MOL     -0.620775
    185 H83         7.7110    2.8760    2.1290 ho        1 MOL      0.298256
    186 H84         6.9130    4.1020    1.7290 ho        1 MOL      0.298256
    187 O29        11.8990    4.6780   -1.0690 oh        1 MOL     -0.620775
    188 H85        12.5870    4.3900   -0.4630 ho        1 MOL      0.298256
    189 H86        12.0950    5.5930   -1.2480 ho        1 MOL      0.298256
    190 O30         8.4630    5.3190   -1.2690 oh        1 MOL     -0.620775
    191 H87         8.6190    6.0600   -0.6880 ho        1 MOL      0.298256
    192 H88         7.9550    5.6870   -2.0020 ho        1 MOL      0.298256
    193 O31        12.0880    1.7790   -0.4210 oh        1 MOL     -0.620775
    194 H89        12.4770    1.3740   -1.2000 ho        1 MOL      0.298256
    195 H90        12.2890    1.1660    0.2890 ho        1 MOL      0.298256
    196 O32        10.5850    4.3380    1.7680 oh        1 MOL     -0.620775
    197 H91        11.0370    4.0500    2.5630 ho        1 MOL      0.298256
    198 H92        10.4520    5.2720    1.9030 ho        1 MOL      0.298256
    199 O33        10.2230    3.5340   -3.0570 oh        1 MOL     -0.620775
    200 H93        11.1280    3.5490   -3.3640 ho        1 MOL      0.298256
    201 H94         9.7100    3.3750   -3.8380 ho        1 MOL      0.298256
@<TRIPOS>BOND
     1    1    2 1   
     2    1    4 1   
     3    1    5 1   
     4    1    6 1   
     5    2    3 2   
     6    2    7 1   
     7    7    8 1   
     8    7   15 1   
     9    8    9 1   
    10    8   11 1   
    11    8   16 1   
    12    9   10 2   
    13    9   19 1   
    14   11   12 1   
    15   11   17 1   
    16   11   18 1   
    17   12   13 1   
    18   12   14 1   
    19   19   20 1   
    20   19   27 1   
    21   20   21 1   
    22   20   23 1   
    23   20   28 1   
    24   21   22 2   
    25   21   38 1   
    26   23   24 1   
    27   23   25 1   
    28   23   29 1   
    29   24   26 1   
    30   24   30 1   
    31   24   31 1   
    32   25   32 1   
    33   25   33 1   
    34   25   34 1   
    35   26   35 1   
    36   26   36 1   
    37   26   37 1   
    38   38   39 1   
    39   38   46 1   
    40   39   40 1   
    41   39   42 1   
    42   39   47 1   
    43   40   41 2   
    44   40   50 1   
    45   42   43 1   
    46   42   48 1   
    47   42   49 1   
    48   43   44 1   
    49   43   45 1   
    50   50   51 1   
    51   50   54 1   
    52   51   52 1   
    53   51   55 1   
    54   51   56 1   
    55   52   53 2   
    56   52   57 1   
    57   57   58 1   
    58   57   65 1   
    59   58   59 1   
    60   58   61 1   
    61   58   66 1   
    62   59   60 2   
    63   59   69 1   
    64   61   62 1   
    65   61   67 1   
    66   61   68 1   
    67   62   63 1   
    68   62   64 1   
    69   69   70 1   
    70   69   73 1   
    71   70   71 1   
    72   70   74 1   
    73   70   75 1   
    74   71   72 2   
    75   71   76 1   
    76   76   77 1   
    77   76   85 1   
    78   77   78 1   
    79   77   80 1   
    80   77   86 1   
    81   78   79 2   
    82   78   93 1   
    83   80   81 1   
    84   80   87 1   
    85   80   88 1   
    86   81   82 1   
    87   81   89 1   
    88   81   90 1   
    89   82   83 1   
    90   82   84 2   
    91   83   91 1   
    92   83   92 1   
    93   93   94 1   
    94   93  100 1   
    95   94   95 1   
    96   94   97 1   
    97   94  101 1   
    98   95   96 2   
    99   95  109 1   
   100   97   98 1   
   101   97   99 1   
   102   97  102 1   
   103   98  103 1   
   104   98  104 1   
   105   98  105 1   
   106   99  106 1   
   107   99  107 1   
   108   99  108 1   
   109  109  110 1   
   110  109  117 1   
   111  110  111 1   
   112  110  113 1   
   113  110  118 1   
   114  111  112 2   
   115  111  123 1   
   116  113  114 1   
   117  113  119 1   
   118  113  120 1   
   119  114  115 1   
   120  114  116 2   
   121  115  121 1   
   122  115  122 1   
   123  123  124 1   
   124  123  135 1   
   125  124  125 1   
   126  124  127 1   
   127  124  136 1   
   128  125  126 2   
   129  125  144 1   
   130  127  128 1   
   131  127  137 1   
   132  127  138 1   
   133  128  129 ar  
   134  128  130 ar  
   135  129  131 ar  
   136  129  139 1   
   137  130  132 ar  
   138  130  140 1   
   139  131  133 ar  
   140  131  141 1   
   141  132  133 ar  
   142  132  142 1   
   143  133  134 1   
   144  134  143 1   
   145  144  145 1   
   146  144  153 1   
   147  145  146 1   
   148  145  148 1   
   149  145  154 1   
   150  146  147 2   
   151  146  159 1   
   152  148  149 1   
   153  148  155 1   
   154  148  156 1   
   155  149  150 1   
   156  149  157 1   
   157  149  158 1   
   158  150  151 1   
   159  150  152 1   
   160  159  160 1   
   161  159  168 1   
   162  160  161 1   
   163  160  163 1   
   164  160  169 1   
   165  161  162 2   
   166  161  174 1   
   167  163  164 1   
   168  163  170 1   
   169  163  171 1   
   170  164  165 1   
   171  164  172 1   
   172  164  173 1   
   173  165  166 1   
   174  165  167 1   
   175  174  175 1   
   176  174  179 1   
   177  175  176 1   
   178  175  177 1   
   179  175  178 1   
   180  181  182 1   
   181  181  183 1   
   182  184  185 1   
   183  184  186 1   
   184  187  188 1   
   185  187  189 1   
   186  190  191 1   
   187  190  192 1   
   188  193  194 1   
   189  193  195 1   
   190  196  197 1   
   191  196  198 1   
   192  199  200 1   
   193  199  201 1   
@<TRIPOS>SUBSTRUCTURE
     1 MOL         1 TEMP              0 ****  ****    0 ROOT
