@<TRIPOS>MOLECULE
MOL
  186   183     1     0     0
SMALL
resp


@<TRIPOS>ATOM
      1 C1         11.3140    5.3950   -2.1910 c3        1 MOL     -0.410977
      2 C2         11.3030    4.3100   -1.1970 c         1 MOL      0.640326
      3 O1         11.6340    3.1280   -1.4180 o         1 MOL     -0.600932
      4 H1         12.0290    5.1580   -2.9780 hc        1 MOL      0.110956
      5 H2         10.3190    5.5010   -2.6240 hc        1 MOL      0.110956
      6 H3         11.6010    6.3290   -1.7070 hc        1 MOL      0.110956
      7 N1         10.8530    4.6510   -0.0140 n         1 MOL     -0.308538
      8 C3         10.2850    3.8000    1.0130 c3        1 MOL     -0.478310
      9 C4          9.1860    2.9220    0.4500 c         1 MOL      0.852645
     10 O2          8.1410    3.4520    0.1230 o         1 MOL     -0.705580
     11 C5          9.7630    4.6900    2.1810 c3        1 MOL      0.130449
     12 C6          8.7460    5.7310    1.8100 c         1 MOL      0.748135
     13 O3          9.1600    6.7980    1.2420 o         1 MOL     -0.757803
     14 O4          7.5440    5.5900    2.0350 o         1 MOL     -0.757803
     15 H4         10.6360    5.6320    0.1180 hn        1 MOL      0.261929
     16 H5         11.1400    3.1760    1.2900 h1        1 MOL      0.165113
     17 H6         10.6450    5.1830    2.6070 hc        1 MOL      0.019300
     18 H7          9.4340    4.0310    2.9860 hc        1 MOL      0.019300
     19 N2          9.4580    1.6010    0.3000 n         1 MOL     -0.511459
     20 C7          8.5900    0.6940   -0.3480 c3        1 MOL      0.129772
     21 C8          7.5720    0.1260    0.7020 c         1 MOL      0.577632
     22 O5          7.9810   -0.6430    1.5720 o         1 MOL     -0.561117
     23 C9          9.3460   -0.5290   -1.0510 c3        1 MOL     -0.061174
     24 C10         8.4860   -1.2890   -2.0840 c3        1 MOL     -0.274190
     25 C11         9.1090   -2.7250   -2.4210 c3        1 MOL      0.185873
     26 C12         8.4610   -3.4710   -3.6080 c3        1 MOL     -0.257393
     27 N3          7.0250   -3.7320   -3.4680 n4        1 MOL     -0.239598
     28 H8         10.3450    1.2760    0.6740 hn        1 MOL      0.311664
     29 H9          7.9870    1.0560   -1.1880 h1        1 MOL      0.036450
     30 H10         9.6940   -1.1600   -0.2270 hc        1 MOL      0.059718
     31 H11        10.2710   -0.1330   -1.4720 hc        1 MOL      0.059718
     32 H12         8.5040   -0.7340   -3.0260 hc        1 MOL      0.062869
     33 H13         7.4500   -1.3690   -1.7480 hc        1 MOL      0.062869
     34 H14         9.0300   -3.3540   -1.5340 hc        1 MOL      0.034141
     35 H15        10.1960   -2.7460   -2.4860 hc        1 MOL      0.034141
     36 H16         9.0840   -4.3370   -3.8340 hx        1 MOL      0.150344
     37 H17         8.5950   -2.7950   -4.4550 hx        1 MOL      0.150344
     38 H18         6.6990   -4.3540   -4.1970 hn        1 MOL      0.286055
     39 H19         6.7880   -4.2490   -2.6330 hn        1 MOL      0.286055
     40 H20         6.4420   -2.9120   -3.5150 hn        1 MOL      0.286055
     41 N4          6.3050    0.4360    0.5410 n         1 MOL     -0.326309
     42 C13         5.1960    0.0390    1.4220 c3        1 MOL     -0.002615
     43 C14         3.9160   -0.0630    0.5970 c         1 MOL      0.427715
     44 O6          3.8890    0.4140   -0.5360 o         1 MOL     -0.486999
     45 C15         4.9970    1.0060    2.6140 c3        1 MOL     -0.090431
     46 C16         5.0640    2.3820    2.1350 c         1 MOL      0.827345
     47 O7          6.0600    3.1490    2.3440 o         1 MOL     -0.819827
     48 O8          4.1920    2.8850    1.3770 o         1 MOL     -0.819827
     49 H21         6.1370    0.9500   -0.3070 hn        1 MOL      0.192378
     50 H22         5.3210   -0.9780    1.8010 h1        1 MOL      0.086085
     51 H23         5.8870    0.8680    3.2390 hc        1 MOL      0.054877
     52 H24         4.0480    0.9180    3.1240 hc        1 MOL      0.054877
     53 N5          2.8930   -0.9300    1.0430 n         1 MOL     -0.247172
     54 C17         2.7420   -1.4210    2.3420 c3        1 MOL     -0.046435
     55 C18         3.0250   -2.9250    2.2950 c         1 MOL      0.370531
     56 O9          3.4920   -3.4890    1.2660 o         1 MOL     -0.511127
     57 H25         2.1770   -1.2260    0.3990 hn        1 MOL      0.169346
     58 H26         1.7370   -1.1750    2.6930 h1        1 MOL      0.086017
     59 H27         3.4350   -0.9980    3.0600 h1        1 MOL      0.086017
     60 N6          2.8030   -3.6940    3.3790 n         1 MOL     -0.230641
     61 C19         3.0050   -5.1410    3.3750 c3        1 MOL     -0.048312
     62 C20         2.0090   -5.8730    2.4720 c         1 MOL      0.437885
     63 O10         2.2670   -6.9840    2.0270 o         1 MOL     -0.556822
     64 C21         3.0850   -5.6850    4.8100 c3        1 MOL     -0.154991
     65 C22         1.8140   -5.4260    5.6320 c         1 MOL      0.686194
     66 O11         0.7710   -5.9380    5.0960 o         1 MOL     -0.668201
     67 O12         1.9090   -4.7560    6.6640 o         1 MOL     -0.668201
     68 H28         2.4720   -3.2150    4.2080 hn        1 MOL      0.230107
     69 H29         3.9490   -5.3610    2.8730 h1        1 MOL      0.072063
     70 H30         3.9290   -5.1750    5.2910 hc        1 MOL      0.042712
     71 H31         3.2650   -6.7500    4.7790 hc        1 MOL      0.042712
     72 N7          0.8970   -5.2620    2.2300 n         1 MOL      0.017862
     73 C23        -0.1670   -5.6420    1.2800 c3        1 MOL     -0.171534
     74 C24         0.0880   -5.1880   -0.1640 c         1 MOL      0.711770
     75 O13        -0.7910   -5.5610   -0.9370 o         1 MOL     -0.587783
     76 H32         0.7650   -4.4320    2.7910 hn        1 MOL      0.123527
     77 H33        -1.0880   -5.1100    1.5500 h1        1 MOL      0.089181
     78 H34        -0.2990   -6.7220    1.2760 h1        1 MOL      0.089181
     79 N8          1.1290   -4.4600   -0.5190 n         1 MOL     -0.511688
     80 C25         1.1280   -3.6910   -1.7780 c3        1 MOL      0.100466
     81 C26         0.6590   -2.2270   -1.6370 c         1 MOL      0.605053
     82 O14         0.5530   -1.5810   -0.5990 o         1 MOL     -0.454707
     83 C27         2.6170   -3.6840   -2.3210 c3        1 MOL      0.523766
     84 C28         3.3790   -5.0310   -2.3460 c3        1 MOL     -0.633123
     85 O15         2.7880   -3.0080   -3.5200 oh        1 MOL     -0.598971
     86 H35         1.8640   -4.3040    0.1640 hn        1 MOL      0.192298
     87 H36         0.5790   -4.2040   -2.5640 h1        1 MOL      0.038693
     88 H37         3.0860   -3.1560   -1.4850 h1        1 MOL     -0.111110
     89 H38         3.6820   -2.6810   -3.3900 ho        1 MOL      0.311920
     90 H39         2.8990   -5.7090   -3.0460 hc        1 MOL      0.160580
     91 H40         4.3620   -4.8870   -2.8100 hc        1 MOL      0.160580
     92 H41         3.5440   -5.3930   -1.3350 hc        1 MOL      0.160580
     93 N9          0.0580   -1.7440   -2.7220 n         1 MOL     -0.513601
     94 C29        -0.6130   -0.3480   -2.8690 c3        1 MOL     -0.019469
     95 C30        -2.0080   -0.2930   -2.2470 c         1 MOL      0.525387
     96 O16        -2.4640    0.7940   -1.9490 o         1 MOL     -0.519505
     97 C31        -0.6130    0.0250   -4.4000 c3        1 MOL      0.085279
     98 C32         0.7860   -0.0470   -5.0390 c3        1 MOL     -0.050190
     99 C33        -1.2260    1.4550   -4.5960 c3        1 MOL     -0.323356
    100 C34         2.0230    0.5440   -4.2210 c3        1 MOL      0.096143
    101 H42         0.1150   -2.1620   -3.6400 hn        1 MOL      0.316232
    102 H43        -0.0820    0.3950   -2.2720 h1        1 MOL      0.115746
    103 H44        -1.2590   -0.6790   -4.9190 hc        1 MOL      0.025348
    104 H45         0.8790    0.3990   -6.0280 hc        1 MOL      0.000436
    105 H46         0.9350   -1.1280   -5.0490 hc        1 MOL      0.000436
    106 H47        -0.7530    2.1540   -3.9000 hc        1 MOL      0.095014
    107 H48        -1.0080    1.9150   -5.5620 hc        1 MOL      0.095014
    108 H49        -2.3060    1.4810   -4.4490 hc        1 MOL      0.095014
    109 H50         2.0190    1.6120   -4.0440 hc        1 MOL     -0.028820
    110 H51         2.0590   -0.0340   -3.2980 hc        1 MOL     -0.028820
    111 H52         2.9210    0.3050   -4.7930 hc        1 MOL     -0.028820
    112 N10        -2.6510   -1.4490   -1.9250 n         1 MOL     -0.391043
    113 C35        -3.8610   -1.4810   -1.0650 c3        1 MOL     -0.000547
    114 C36        -5.1080   -2.1830   -1.6800 c         1 MOL      0.550121
    115 O17        -4.9950   -3.1700   -2.4370 o         1 MOL     -0.538234
    116 C37        -3.5760   -2.1330    0.3150 c3        1 MOL      0.420427
    117 C38        -3.3470   -3.6950    0.3860 c3        1 MOL     -0.259026
    118 O18        -2.4320   -1.5580    0.9240 oh        1 MOL     -0.584889
    119 H53        -2.2310   -2.3130   -2.2260 hn        1 MOL      0.228426
    120 H54        -4.2290   -0.4750   -0.8930 h1        1 MOL      0.052850
    121 H55        -4.4250   -2.0040    0.9950 h1        1 MOL     -0.058721
    122 H56        -2.6790   -0.6280    0.9460 ho        1 MOL      0.368866
    123 H57        -4.3260   -4.1790    0.4070 hc        1 MOL      0.070675
    124 H58        -2.6860   -3.9920   -0.4330 hc        1 MOL      0.070675
    125 H59        -2.9630   -3.8890    1.3870 hc        1 MOL      0.070675
    126 N11        -6.2930   -1.7050   -1.3240 n         1 MOL     -0.490557
    127 C39        -7.6030   -2.3250   -1.6550 c3        1 MOL      0.091847
    128 C40        -8.7250   -1.2860   -1.7360 c         1 MOL      0.396424
    129 O19        -9.4890   -1.2750   -2.7110 o         1 MOL     -0.532117
    130 C41        -7.9270   -3.3730   -0.6380 c3        1 MOL      0.418709
    131 C42        -9.2880   -4.0250   -0.8740 c3        1 MOL     -0.387299
    132 O20        -7.7730   -2.9510    0.6880 oh        1 MOL     -0.636876
    133 H60        -6.3040   -0.9370   -0.6630 hn        1 MOL      0.242646
    134 H61        -7.5520   -2.8600   -2.5990 h1        1 MOL      0.081977
    135 H62        -7.1600   -4.1390   -0.7540 h1        1 MOL     -0.025565
    136 H63        -6.9400   -3.3540    0.9270 ho        1 MOL      0.409067
    137 H64        -9.3390   -4.4750   -1.8670 hc        1 MOL      0.100275
    138 H65        -9.5240   -4.7540   -0.0980 hc        1 MOL      0.100275
    139 H66       -10.0990   -3.3080   -0.7820 hc        1 MOL      0.100275
    140 N12        -8.9180   -0.4970   -0.6750 n         1 MOL     -0.249819
    141 C43        -9.9140    0.5690   -0.4450 c3        1 MOL     -0.001565
    142 C44        -9.3320    1.6490    0.4780 c         1 MOL      0.603265
    143 O21        -8.7380    1.2490    1.5060 o         1 MOL     -0.493238
    144 C45       -11.2060   -0.0570    0.1980 c3        1 MOL     -0.530673
    145 C46       -12.2610    1.0400    0.5640 c3        1 MOL      0.116803
    146 C47       -13.5390    0.3300    0.9580 c3        1 MOL      0.057364
    147 C48       -14.7330    1.2980    1.1060 c3        1 MOL      0.037620
    148 N13       -16.0370    0.7510    0.7700 n4        1 MOL     -0.263820
    149 H67        -8.2220   -0.7420    0.0140 hn        1 MOL      0.211148
    150 H68       -10.0570    1.0210   -1.4340 h1        1 MOL      0.111615
    151 H69       -10.9540   -0.5340    1.1410 hc        1 MOL      0.197210
    152 H70       -11.6810   -0.7080   -0.5390 hc        1 MOL      0.197210
    153 H71       -12.4000    1.6740   -0.3140 hc        1 MOL      0.017683
    154 H72       -12.0180    1.6970    1.3970 hc        1 MOL      0.017683
    155 H73       -13.3720   -0.1940    1.9060 hc        1 MOL      0.009804
    156 H74       -13.8530   -0.3720    0.1700 hc        1 MOL      0.009804
    157 H75       -14.4460    2.1910    0.5550 hx        1 MOL      0.068374
    158 H76       -14.6770    1.6510    2.1310 hx        1 MOL      0.068374
    159 H77       -16.1650    0.2510   -0.1000 hn        1 MOL      0.244834
    160 H78       -16.4540    0.2190    1.5210 hn        1 MOL      0.244834
    161 H79       -16.7510    1.4620    0.6640 hn        1 MOL      0.244834
    162 N14        -9.3690    2.9450    0.1640 n         1 MOL     -0.659281
    163 C49        -8.6670    3.9520    0.9750 c3        1 MOL      0.233010
    164 C50        -7.1710    3.7530    0.8580 c         1 MOL      0.306650
    165 O22        -6.5640    3.5460    1.9430 o         1 MOL     -0.516316
    166 C51        -9.0330    5.3620    0.5940 c3        1 MOL      0.262910
    167 C52        -8.4230    6.4240    1.5190 c3        1 MOL     -0.327124
    168 C53        -9.0280    7.8900    1.3970 c         1 MOL      0.727966
    169 O23       -10.2350    8.0430    1.1700 o         1 MOL     -0.648709
    170 O24        -8.2550    8.8550    1.3620 o         1 MOL     -0.648709
    171 H80        -9.9190    3.2870   -0.6060 hn        1 MOL      0.305089
    172 H81        -8.8590    3.7930    2.0290 h1        1 MOL      0.061478
    173 H82       -10.1170    5.4830    0.6220 hc        1 MOL     -0.068328
    174 H83        -8.8830    5.5520   -0.4750 hc        1 MOL     -0.068328
    175 H84        -7.3750    6.5140    1.2370 hc        1 MOL      0.061108
    176 H85        -8.6720    6.0670    2.5230 hc        1 MOL      0.061108
    177 N15        -6.4590    3.8210   -0.2930 n         1 MOL     -0.255426
    178 C54        -6.9290    4.2620   -1.6440 c3        1 MOL     -0.224508
    179 H86        -6.1350    4.1020   -2.3740 h1        1 MOL      0.106959
    180 H87        -7.8070    3.6830   -1.9300 h1        1 MOL      0.106959
    181 H88        -7.1850    5.3210   -1.6120 h1        1 MOL      0.106959
    182 H89        -5.4910    3.5550   -0.2450 hn        1 MOL      0.273124
    183 Ca1         5.8120    4.7280    0.3150 Ca        1 MOL      1.758152
    184 O25         5.2460    2.6440   -1.2090 oh        1 MOL     -0.810847
    185 H90         5.6090    2.5750   -2.0870 ho        1 MOL      0.382786
    186 H91         4.5790    1.9620   -1.1720 ho        1 MOL      0.382786
@<TRIPOS>BOND
     1    1    2 1   
     2    1    4 1   
     3    1    5 1   
     4    1    6 1   
     5    2    3 2   
     6    2    7 1   
     7    7    8 1   
     8    7   15 1   
     9    8    9 1   
    10    8   11 1   
    11    8   16 1   
    12    9   10 2   
    13    9   19 1   
    14   11   12 1   
    15   11   17 1   
    16   11   18 1   
    17   12   13 1   
    18   12   14 1   
    19   19   20 1   
    20   19   28 1   
    21   20   21 1   
    22   20   23 1   
    23   20   29 1   
    24   21   22 2   
    25   21   41 1   
    26   23   24 1   
    27   23   30 1   
    28   23   31 1   
    29   24   25 1   
    30   24   32 1   
    31   24   33 1   
    32   25   26 1   
    33   25   34 1   
    34   25   35 1   
    35   26   27 1   
    36   26   36 1   
    37   26   37 1   
    38   27   38 1   
    39   27   39 1   
    40   27   40 1   
    41   41   42 1   
    42   41   49 1   
    43   42   43 1   
    44   42   45 1   
    45   42   50 1   
    46   43   44 2   
    47   43   53 1   
    48   45   46 1   
    49   45   51 1   
    50   45   52 1   
    51   46   47 1   
    52   46   48 1   
    53   53   54 1   
    54   53   57 1   
    55   54   55 1   
    56   54   58 1   
    57   54   59 1   
    58   55   56 2   
    59   55   60 1   
    60   60   61 1   
    61   60   68 1   
    62   61   62 1   
    63   61   64 1   
    64   61   69 1   
    65   62   63 2   
    66   62   72 1   
    67   64   65 1   
    68   64   70 1   
    69   64   71 1   
    70   65   66 1   
    71   65   67 1   
    72   72   73 1   
    73   72   76 1   
    74   73   74 1   
    75   73   77 1   
    76   73   78 1   
    77   74   75 2   
    78   74   79 1   
    79   79   80 1   
    80   79   86 1   
    81   80   81 1   
    82   80   83 1   
    83   80   87 1   
    84   81   82 2   
    85   81   93 1   
    86   83   84 1   
    87   83   85 1   
    88   83   88 1   
    89   84   90 1   
    90   84   91 1   
    91   84   92 1   
    92   85   89 1   
    93   93   94 1   
    94   93  101 1   
    95   94   95 1   
    96   94   97 1   
    97   94  102 1   
    98   95   96 2   
    99   95  112 1   
   100   97   98 1   
   101   97   99 1   
   102   97  103 1   
   103   98  100 1   
   104   98  104 1   
   105   98  105 1   
   106   99  106 1   
   107   99  107 1   
   108   99  108 1   
   109  100  109 1   
   110  100  110 1   
   111  100  111 1   
   112  112  113 1   
   113  112  119 1   
   114  113  114 1   
   115  113  116 1   
   116  113  120 1   
   117  114  115 2   
   118  114  126 1   
   119  116  117 1   
   120  116  118 1   
   121  116  121 1   
   122  117  123 1   
   123  117  124 1   
   124  117  125 1   
   125  118  122 1   
   126  126  127 1   
   127  126  133 1   
   128  127  128 1   
   129  127  130 1   
   130  127  134 1   
   131  128  129 2   
   132  128  140 1   
   133  130  131 1   
   134  130  132 1   
   135  130  135 1   
   136  131  137 1   
   137  131  138 1   
   138  131  139 1   
   139  132  136 1   
   140  140  141 1   
   141  140  149 1   
   142  141  142 1   
   143  141  144 1   
   144  141  150 1   
   145  142  143 2   
   146  142  162 1   
   147  144  145 1   
   148  144  151 1   
   149  144  152 1   
   150  145  146 1   
   151  145  153 1   
   152  145  154 1   
   153  146  147 1   
   154  146  155 1   
   155  146  156 1   
   156  147  148 1   
   157  147  157 1   
   158  147  158 1   
   159  148  159 1   
   160  148  160 1   
   161  148  161 1   
   162  162  163 1   
   163  162  171 1   
   164  163  164 1   
   165  163  166 1   
   166  163  172 1   
   167  164  165 2   
   168  164  177 1   
   169  166  167 1   
   170  166  173 1   
   171  166  174 1   
   172  167  168 1   
   173  167  175 1   
   174  167  176 1   
   175  168  169 1   
   176  168  170 1   
   177  177  178 1   
   178  177  182 1   
   179  178  179 1   
   180  178  180 1   
   181  178  181 1   
   182  184  185 1   
   183  184  186 1   
@<TRIPOS>SUBSTRUCTURE
     1 MOL         1 TEMP              0 ****  ****    0 ROOT
