@<TRIPOS>MOLECULE
MOL
  195   189     1     0     0
SMALL
resp


@<TRIPOS>ATOM
      1 C1         -0.3760   -8.1380   -0.9380 c3        1 MOL     -0.367280
      2 C2         -0.4940   -6.5780   -1.0150 c         1 MOL      0.643154
      3 O1         -0.0950   -5.9940   -2.0150 o         1 MOL     -0.535295
      4 H1         -0.0170   -8.4270    0.0490 hc        1 MOL      0.097251
      5 H2         -1.3540   -8.5850   -1.1140 hc        1 MOL      0.097251
      6 H3          0.3260   -8.4860   -1.6960 hc        1 MOL      0.097251
      7 N1         -1.1370   -5.9480    0.0100 n         1 MOL     -0.427542
      8 C3         -1.2500   -4.4930   -0.0360 c3        1 MOL     -0.087330
      9 C4          0.0330   -3.8320    0.3940 c         1 MOL      0.328580
     10 O2          0.0980   -2.6380    0.1650 o         1 MOL     -0.324394
     11 C5         -2.4570   -3.9530    0.7900 c3        1 MOL      0.063825
     12 C6         -2.3160   -4.3090    2.2650 c         1 MOL      0.624972
     13 O3         -1.6090   -3.5230    2.9560 o         1 MOL     -0.688592
     14 O4         -3.0020   -5.2580    2.7680 o         1 MOL     -0.688592
     15 H4         -1.4580   -6.4970    0.7990 hn        1 MOL      0.245957
     16 H5         -1.5050   -4.1900   -1.0450 h1        1 MOL      0.121335
     17 H6         -3.3670   -4.3180    0.3070 hc        1 MOL     -0.016337
     18 H7         -2.5460   -2.8700    0.6640 hc        1 MOL     -0.016337
     19 N2          1.0620   -4.5080    0.9550 n         1 MOL     -0.315608
     20 C7          2.3300   -3.8380    1.2330 c3        1 MOL      0.099441
     21 C8          3.1730   -3.5710   -0.0710 c         1 MOL      0.473018
     22 O5          3.1250   -4.4290   -0.9960 o         1 MOL     -0.563564
     23 C9          3.1380   -4.6760    2.1880 c3        1 MOL      0.191503
     24 C10         2.5870   -4.7370    3.6520 c3        1 MOL     -0.033826
     25 C11         1.2170   -5.3180    4.0130 c3        1 MOL      0.004098
     26 C12         0.6200   -4.8860    5.3500 c3        1 MOL      0.011271
     27 N3         -0.8470   -5.0860    5.2660 n4        1 MOL     -0.316984
     28 H8          0.9710   -5.4960    1.1730 hn        1 MOL      0.221897
     29 H9          2.1870   -2.9710    1.8760 h1        1 MOL      0.092371
     30 H10         4.1270   -4.2010    2.2080 hc        1 MOL     -0.048635
     31 H11         3.2680   -5.6860    1.7780 hc        1 MOL     -0.048635
     32 H12         2.7790   -3.7860    4.1390 hc        1 MOL      0.000054
     33 H13         3.3740   -5.3170    4.1380 hc        1 MOL      0.000054
     34 H14         1.2500   -6.4000    3.8540 hc        1 MOL      0.000496
     35 H15         0.5560   -4.9410    3.2340 hc        1 MOL      0.000496
     36 H16         0.9060   -3.8350    5.4010 hx        1 MOL      0.077349
     37 H17         1.0180   -5.4550    6.1890 hx        1 MOL      0.077349
     38 H18        -1.2470   -4.7050    4.4240 hn        1 MOL      0.294249
     39 H19        -1.0760   -6.0560    5.4400 hn        1 MOL      0.294249
     40 H20        -1.3080   -4.7110    6.0910 hn        1 MOL      0.294249
     41 N4          3.7050   -2.3780   -0.2950 n         1 MOL     -0.519798
     42 C13         3.8450   -1.3300    0.7290 c3        1 MOL      0.043624
     43 C14         4.6570   -1.6950    1.9370 c         1 MOL      0.574106
     44 O6          4.3020   -1.3880    3.0700 o         1 MOL     -0.565740
     45 C15         2.6210   -0.4240    0.9210 c3        1 MOL     -0.320943
     46 C16         2.0110    0.0280   -0.4530 c         1 MOL      0.867247
     47 O7          2.6950   -0.0980   -1.5570 o         1 MOL     -0.805257
     48 O8          0.8200    0.3700   -0.5950 o         1 MOL     -0.805257
     49 H21         4.0090   -2.2520   -1.2490 hn        1 MOL      0.339433
     50 H22         4.5410   -0.6760    0.2100 h1        1 MOL      0.012180
     51 H23         2.9440    0.4060    1.5570 hc        1 MOL      0.078780
     52 H24         1.7850   -0.9610    1.3880 hc        1 MOL      0.078780
     53 N5          5.8370   -2.3530    1.7870 n         1 MOL     -0.363002
     54 C17         6.6070   -2.7120    0.5960 c3        1 MOL      0.031639
     55 C18         8.1340   -2.5730    0.8710 c         1 MOL      0.508662
     56 O9          8.6690   -3.0920    1.8460 o         1 MOL     -0.545007
     57 H25         6.3920   -2.3840    2.6340 hn        1 MOL      0.260310
     58 H26         6.2130   -1.9780   -0.1140 h1        1 MOL      0.032940
     59 H27         6.4040   -3.7460    0.3170 h1        1 MOL      0.032940
     60 N6          8.8520   -1.8360    0.0330 n         1 MOL     -0.412219
     61 C19         8.4670   -0.9940   -1.0480 c3        1 MOL      0.190134
     62 C20         7.9330    0.3770   -0.5660 c         1 MOL      0.418895
     63 O10         8.4330    0.9630    0.4050 o         1 MOL     -0.519537
     64 C21         9.6980   -0.7970   -1.9710 c3        1 MOL     -0.216003
     65 C22         9.3030    0.2510   -3.0760 c         1 MOL      0.627707
     66 O11         9.9700    1.3310   -3.1170 o         1 MOL     -0.639815
     67 O12         8.3080    0.0570   -3.8290 o         1 MOL     -0.639815
     68 H28         9.8190   -1.8140    0.3480 hn        1 MOL      0.275297
     69 H29         7.6890   -1.4710   -1.6360 h1        1 MOL     -0.015189
     70 H30         9.7140   -1.8070   -2.3810 hc        1 MOL      0.055744
     71 H31        10.6710   -0.5540   -1.5660 hc        1 MOL      0.055744
     72 N7          6.9260    0.9010   -1.2880 n         1 MOL     -0.136956
     73 C23         6.4880    2.3460   -1.0950 c3        1 MOL     -0.284703
     74 C24         5.3500    2.5540   -0.1300 c         1 MOL      0.552883
     75 O13         5.0200    1.7360    0.7970 o         1 MOL     -0.458542
     76 H32         6.6100    0.3680   -2.0850 hn        1 MOL      0.251891
     77 H33         6.1930    2.8420   -2.0160 h1        1 MOL      0.128372
     78 H34         7.3380    2.7800   -0.5630 h1        1 MOL      0.128372
     79 N8          4.8800    3.8210   -0.2340 n         1 MOL     -0.414932
     80 C25         4.0490    4.4410    0.8100 c3        1 MOL     -0.016354
     81 C26         2.7080    3.8780    0.9090 c         1 MOL      0.416383
     82 O14         2.0130    3.6280   -0.1170 o         1 MOL     -0.559981
     83 C27         3.8310    5.9440    0.5430 c3        1 MOL      0.351453
     84 C28         3.3770    6.3280   -0.9030 c3        1 MOL     -0.112814
     85 O15         5.1370    6.5790    0.7900 oh        1 MOL     -0.672857
     86 H35         5.2890    4.3340   -0.9910 hn        1 MOL      0.311256
     87 H36         4.5400    4.2980    1.7660 h1        1 MOL      0.111268
     88 H37         3.0870    6.2980    1.2570 h1        1 MOL      0.001316
     89 H38         5.1570    7.5300    0.7400 ho        1 MOL      0.420734
     90 H39         3.8420    5.6160   -1.5760 hc        1 MOL      0.020295
     91 H40         2.3160    6.1290   -1.0610 hc        1 MOL      0.020295
     92 H41         3.6440    7.3760   -1.0150 hc        1 MOL      0.020295
     93 N9          2.0320    3.9980    2.0440 n         1 MOL     -0.332101
     94 C29         0.6070    3.6150    2.2390 c3        1 MOL     -0.050721
     95 C30        -0.2330    4.8680    1.8390 c         1 MOL      0.560833
     96 O16        -0.0270    5.9280    2.5090 o         1 MOL     -0.558715
     97 C31         0.1740    3.0790    3.6220 c3        1 MOL     -0.024816
     98 C32         0.8400    1.7560    3.9630 c3        1 MOL      0.137013
     99 C33        -1.4120    2.9510    3.7970 c3        1 MOL     -0.146186
    100 C34         0.7930    1.2360    5.3770 c3        1 MOL     -0.399197
    101 H42         2.5030    4.3170    2.8780 hn        1 MOL      0.255588
    102 H43         0.3670    2.8290    1.5150 h1        1 MOL      0.103993
    103 H44         0.5160    3.9010    4.2540 hc        1 MOL      0.038059
    104 H45         1.9030    1.8690    3.7630 hc        1 MOL      0.045915
    105 H46         0.4340    1.0120    3.2810 hc        1 MOL      0.045915
    106 H47        -1.6460    2.6360    4.8040 hc        1 MOL      0.035124
    107 H48        -1.8580    3.9370    3.6660 hc        1 MOL      0.035124
    108 H49        -1.7060    2.1030    3.1760 hc        1 MOL      0.035124
    109 H50         1.2190    1.9520    6.0680 hc        1 MOL      0.099549
    110 H51        -0.2080    0.8970    5.6480 hc        1 MOL      0.099549
    111 H52         1.4080    0.3290    5.4290 hc        1 MOL      0.099549
    112 N10        -1.2410    4.7390    0.9840 n         1 MOL     -0.325171
    113 C35        -2.3900    5.6190    0.6870 c3        1 MOL     -0.184426
    114 C36        -3.7470    4.9300    0.5410 c         1 MOL      0.458134
    115 O17        -4.8720    5.5360    0.5330 o         1 MOL     -0.534827
    116 C37        -2.0620    6.4280   -0.6070 c3        1 MOL      0.547375
    117 C38        -1.6160    5.5100   -1.7520 c3        1 MOL     -0.343102
    118 O18        -0.9590    7.2990   -0.4740 oh        1 MOL     -0.629433
    119 H53        -1.2370    3.8190    0.5610 hn        1 MOL      0.275028
    120 H54        -2.4770    6.3970    1.4490 h1        1 MOL      0.118518
    121 H55        -2.9500    7.0190   -0.7850 h1        1 MOL     -0.041543
    122 H56        -1.1010    7.8840    0.2750 ho        1 MOL      0.379260
    123 H57        -0.5640    5.2370   -1.6780 hc        1 MOL      0.080734
    124 H58        -2.2840    4.6480   -1.8050 hc        1 MOL      0.080734
    125 H59        -1.7210    6.0130   -2.7060 hc        1 MOL      0.080734
    126 N11        -3.7530    3.6110    0.7590 n         1 MOL     -0.327916
    127 C39        -4.8860    2.7060    0.9520 c3        1 MOL      0.086085
    128 C40        -5.7770    2.4880   -0.2370 c         1 MOL      0.222875
    129 O19        -5.7090    3.2070   -1.3310 o         1 MOL     -0.434706
    130 C41        -5.7040    3.1340    2.2450 c3        1 MOL      0.413055
    131 C42        -4.9860    2.8310    3.5900 c3        1 MOL     -0.352607
    132 O20        -6.9500    2.5720    2.3210 oh        1 MOL     -0.747089
    133 H60        -2.8760    3.1780    0.5210 hn        1 MOL      0.240429
    134 H61        -4.4250    1.7330    1.1090 h1        1 MOL      0.047035
    135 H62        -5.8810    4.2120    2.2250 h1        1 MOL      0.047376
    136 H63        -7.6200    3.2120    2.0620 ho        1 MOL      0.412106
    137 H64        -5.6450    2.7730    4.4540 hc        1 MOL      0.096332
    138 H65        -4.4670    1.8790    3.5380 hc        1 MOL      0.096332
    139 H66        -4.3200    3.6600    3.8070 hc        1 MOL      0.096332
    140 N12        -6.4280    1.3690   -0.3610 n         1 MOL     -0.102576
    141 C43        -7.2570    0.9660   -1.5290 c3        1 MOL     -0.002938
    142 C44        -6.8240   -0.2790   -2.1800 c         1 MOL      0.603523
    143 O21        -7.1430   -0.4000   -3.3420 o         1 MOL     -0.551453
    144 C45        -8.6690    0.7660   -0.9580 c3        1 MOL     -0.142257
    145 C46        -8.7960   -0.6240   -0.2690 c3        1 MOL      0.142468
    146 C47        -9.9380   -0.4850    0.7600 c3        1 MOL     -0.085799
    147 C48        -9.4400    0.1620    2.0390 c3        1 MOL      0.052932
    148 N13       -10.1850   -0.2260    3.2380 n4        1 MOL     -0.267884
    149 H67        -6.2840    0.6510    0.3410 hn        1 MOL      0.171631
    150 H68        -7.3420    1.7750   -2.2610 h1        1 MOL      0.119333
    151 H69        -9.3460    0.8680   -1.7980 hc        1 MOL      0.046519
    152 H70        -9.0040    1.5500   -0.2820 hc        1 MOL      0.046519
    153 H71        -7.9120   -0.9900    0.2490 hc        1 MOL     -0.020048
    154 H72        -9.1010   -1.3470   -1.0170 hc        1 MOL     -0.020048
    155 H73       -10.3780   -1.4490    0.9830 hc        1 MOL      0.036981
    156 H74       -10.7640    0.1100    0.3560 hc        1 MOL      0.036981
    157 H75        -9.5390    1.2410    2.0100 hx        1 MOL      0.085451
    158 H76        -8.3990   -0.1130    2.1730 hx        1 MOL      0.085451
    159 H77        -9.9910    0.3370    4.0540 hn        1 MOL      0.258416
    160 H78       -11.1530   -0.0410    3.0320 hn        1 MOL      0.258416
    161 H79       -10.1400   -1.1810    3.5670 hn        1 MOL      0.258416
    162 N14        -6.0330   -1.1340   -1.6420 n         1 MOL     -0.535136
    163 C49        -5.1530   -1.9470   -2.5140 c3        1 MOL      0.135504
    164 C50        -5.8450   -3.3140   -2.7160 c         1 MOL      0.316184
    165 O22        -5.3730   -4.4020   -2.2280 o         1 MOL     -0.485978
    166 C51        -3.6880   -2.0510   -1.9570 c3        1 MOL     -0.159725
    167 C52        -3.0760   -0.6760   -1.7570 c3        1 MOL      0.052006
    168 C53        -2.6920    0.1050   -2.9940 c         1 MOL      0.742392
    169 O23        -1.5960    0.7360   -3.0270 o         1 MOL     -0.748192
    170 O24        -3.4580    0.2900   -3.9380 o         1 MOL     -0.748192
    171 H80        -5.8730   -1.0520   -0.6500 hn        1 MOL      0.310913
    172 H81        -5.0920   -1.4820   -3.4970 h1        1 MOL      0.125442
    173 H82        -3.0780   -2.6170   -2.6630 hc        1 MOL      0.078627
    174 H83        -3.8620   -2.4940   -0.9750 hc        1 MOL      0.078627
    175 H84        -2.1350   -0.8360   -1.2130 hc        1 MOL     -0.038234
    176 H85        -3.6910   -0.0730   -1.0850 hc        1 MOL     -0.038234
    177 N15        -6.9290   -3.4240   -3.4850 n         1 MOL     -0.305164
    178 C54        -7.5860   -4.7100   -4.0400 c3        1 MOL     -0.022084
    179 H86        -7.7190   -4.6140   -5.1180 h1        1 MOL      0.061108
    180 H87        -6.9460   -5.5670   -3.8270 h1        1 MOL      0.061108
    181 H88        -8.5580   -4.8560   -3.5670 h1        1 MOL      0.061108
    182 H89        -7.2920   -2.5750   -3.8870 hn        1 MOL      0.238528
    183 Ca1         0.9010    0.4180   -3.4410 Ca        1 MOL      1.814247
    184 O25        -0.6060   -1.0220   -5.2530 oh        1 MOL     -0.906525
    185 H90        -1.1710   -1.7710   -5.0660 ho        1 MOL      0.439617
    186 H91        -0.9000   -0.7210   -6.1170 ho        1 MOL      0.439617
    187 O26         0.3070   -2.1650   -2.6410 oh        1 MOL     -0.906525
    188 H92         0.7740   -2.8330   -3.1500 ho        1 MOL      0.439617
    189 H93         0.2310   -2.5550   -1.7710 ho        1 MOL      0.439617
    190 O27         0.8670    2.9880   -2.5890 oh        1 MOL     -0.906525
    191 H94         0.8120    3.4540   -1.7480 ho        1 MOL      0.439617
    192 H95         0.9200    3.6870   -3.2420 ho        1 MOL      0.439617
    193 O28         3.4090    1.5940   -4.1980 oh        1 MOL     -0.906525
    194 H96         3.2220    2.5180   -4.0260 ho        1 MOL      0.439617
    195 H97         4.3550    1.5460   -4.3010 ho        1 MOL      0.439617
@<TRIPOS>BOND
     1    1    2 1   
     2    1    4 1   
     3    1    5 1   
     4    1    6 1   
     5    2    3 2   
     6    2    7 1   
     7    7    8 1   
     8    7   15 1   
     9    8    9 1   
    10    8   11 1   
    11    8   16 1   
    12    9   10 2   
    13    9   19 1   
    14   11   12 1   
    15   11   17 1   
    16   11   18 1   
    17   12   13 1   
    18   12   14 1   
    19   19   20 1   
    20   19   28 1   
    21   20   21 1   
    22   20   23 1   
    23   20   29 1   
    24   21   22 2   
    25   21   41 1   
    26   23   24 1   
    27   23   30 1   
    28   23   31 1   
    29   24   25 1   
    30   24   32 1   
    31   24   33 1   
    32   25   26 1   
    33   25   34 1   
    34   25   35 1   
    35   26   27 1   
    36   26   36 1   
    37   26   37 1   
    38   27   38 1   
    39   27   39 1   
    40   27   40 1   
    41   41   42 1   
    42   41   49 1   
    43   42   43 1   
    44   42   45 1   
    45   42   50 1   
    46   43   44 2   
    47   43   53 1   
    48   45   46 1   
    49   45   51 1   
    50   45   52 1   
    51   46   47 1   
    52   46   48 1   
    53   53   54 1   
    54   53   57 1   
    55   54   55 1   
    56   54   58 1   
    57   54   59 1   
    58   55   56 2   
    59   55   60 1   
    60   60   61 1   
    61   60   68 1   
    62   61   62 1   
    63   61   64 1   
    64   61   69 1   
    65   62   63 2   
    66   62   72 1   
    67   64   65 1   
    68   64   70 1   
    69   64   71 1   
    70   65   66 1   
    71   65   67 1   
    72   72   73 1   
    73   72   76 1   
    74   73   74 1   
    75   73   77 1   
    76   73   78 1   
    77   74   75 2   
    78   74   79 1   
    79   79   80 1   
    80   79   86 1   
    81   80   81 1   
    82   80   83 1   
    83   80   87 1   
    84   81   82 2   
    85   81   93 1   
    86   83   84 1   
    87   83   85 1   
    88   83   88 1   
    89   84   90 1   
    90   84   91 1   
    91   84   92 1   
    92   85   89 1   
    93   93   94 1   
    94   93  101 1   
    95   94   95 1   
    96   94   97 1   
    97   94  102 1   
    98   95   96 2   
    99   95  112 1   
   100   97   98 1   
   101   97   99 1   
   102   97  103 1   
   103   98  100 1   
   104   98  104 1   
   105   98  105 1   
   106   99  106 1   
   107   99  107 1   
   108   99  108 1   
   109  100  109 1   
   110  100  110 1   
   111  100  111 1   
   112  112  113 1   
   113  112  119 1   
   114  113  114 1   
   115  113  116 1   
   116  113  120 1   
   117  114  115 2   
   118  114  126 1   
   119  116  117 1   
   120  116  118 1   
   121  116  121 1   
   122  117  123 1   
   123  117  124 1   
   124  117  125 1   
   125  118  122 1   
   126  126  127 1   
   127  126  133 1   
   128  127  128 1   
   129  127  130 1   
   130  127  134 1   
   131  128  129 2   
   132  128  140 1   
   133  130  131 1   
   134  130  132 1   
   135  130  135 1   
   136  131  137 1   
   137  131  138 1   
   138  131  139 1   
   139  132  136 1   
   140  140  141 1   
   141  140  149 1   
   142  141  142 1   
   143  141  144 1   
   144  141  150 1   
   145  142  143 2   
   146  142  162 1   
   147  144  145 1   
   148  144  151 1   
   149  144  152 1   
   150  145  146 1   
   151  145  153 1   
   152  145  154 1   
   153  146  147 1   
   154  146  155 1   
   155  146  156 1   
   156  147  148 1   
   157  147  157 1   
   158  147  158 1   
   159  148  159 1   
   160  148  160 1   
   161  148  161 1   
   162  162  163 1   
   163  162  171 1   
   164  163  164 1   
   165  163  166 1   
   166  163  172 1   
   167  164  165 2   
   168  164  177 1   
   169  166  167 1   
   170  166  173 1   
   171  166  174 1   
   172  167  168 1   
   173  167  175 1   
   174  167  176 1   
   175  168  169 1   
   176  168  170 1   
   177  177  178 1   
   178  177  182 1   
   179  178  179 1   
   180  178  180 1   
   181  178  181 1   
   182  184  185 1   
   183  184  186 1   
   184  187  188 1   
   185  187  189 1   
   186  190  191 1   
   187  190  192 1   
   188  193  194 1   
   189  193  195 1   
@<TRIPOS>SUBSTRUCTURE
     1 MOL         1 TEMP              0 ****  ****    0 ROOT
