@<TRIPOS>MOLECULE
MOL
  182   178     1     0     0
SMALL
resp


@<TRIPOS>ATOM
      1 C1          1.4870   -3.9630    6.0700 c3        1 MOL     -0.414771
      2 C2          1.4380   -3.7800    4.5660 c         1 MOL      0.782726
      3 O1          0.3860   -3.7510    3.8780 o         1 MOL     -0.634202
      4 H1          1.3050   -5.0100    6.3140 hc        1 MOL      0.116767
      5 H2          2.4690   -3.6680    6.4410 hc        1 MOL      0.116767
      6 H3          0.7210   -3.3430    6.5360 hc        1 MOL      0.116767
      7 N1          2.6080   -3.6110    3.9490 n         1 MOL     -0.657796
      8 C3          2.7590   -3.0580    2.5770 c3        1 MOL      0.258701
      9 C4          3.1630   -4.2260    1.5900 c         1 MOL      0.486132
     10 O2          3.5330   -5.3560    1.9820 o         1 MOL     -0.573443
     11 C5          3.8670   -1.8800    2.5740 c3        1 MOL     -0.300624
     12 C6          3.9560   -1.0140    1.3470 c         1 MOL      0.877046
     13 O3          3.9310    0.2520    1.3810 o         1 MOL     -0.787308
     14 O4          3.7540   -1.5960    0.2560 o         1 MOL     -0.787308
     15 H4          3.4300   -3.8080    4.4920 hn        1 MOL      0.328244
     16 H5          1.8060   -2.5890    2.3030 h1        1 MOL     -0.050697
     17 H6          4.8300   -2.3710    2.7160 hc        1 MOL      0.076307
     18 H7          3.6980   -1.2490    3.4410 hc        1 MOL      0.076307
     19 N2          2.9630   -4.1050    0.2730 n         1 MOL     -0.059706
     20 C7          3.1560   -5.0790   -0.7680 c3        1 MOL     -0.009845
     21 C8          4.2870   -4.6770   -1.7790 c         1 MOL      0.434147
     22 O5          4.7580   -5.5670   -2.4850 o         1 MOL     -0.526153
     23 C9          1.8230   -5.3380   -1.4740 c3        1 MOL     -0.039615
     24 C10         1.2760   -6.7770   -1.1670 c3        1 MOL      0.072264
     25 C11        -0.1310   -6.9190   -1.6380 c3        1 MOL     -0.109253
     26 C12        -0.7400   -8.1820   -0.9980 c3        1 MOL      0.040931
     27 N3         -2.0060   -8.5590   -1.5800 n4        1 MOL     -0.166424
     28 H8          2.6340   -3.1840    0.0040 hn        1 MOL     -0.126461
     29 H9          3.5120   -5.9940   -0.2830 h1        1 MOL      0.084819
     30 H10         1.9910   -5.2360   -2.5430 hc        1 MOL      0.019096
     31 H11         1.0560   -4.6470   -1.1310 hc        1 MOL      0.019096
     32 H12         1.2540   -6.8780   -0.0840 hc        1 MOL      0.018854
     33 H13         1.9610   -7.5700   -1.4960 hc        1 MOL      0.018854
     34 H14        -0.1390   -6.9310   -2.7260 hc        1 MOL      0.037488
     35 H15        -0.6220   -6.0280   -1.2570 hc        1 MOL      0.037488
     36 H16        -0.9140   -7.9890    0.0600 hx        1 MOL      0.080842
     37 H17        -0.0380   -9.0180   -1.0370 hx        1 MOL      0.080842
     38 H18        -1.9750   -8.5880   -2.5850 hn        1 MOL      0.236485
     39 H19        -2.3500   -9.4930   -1.3850 hn        1 MOL      0.236485
     40 H20        -2.7020   -7.8400   -1.5240 hn        1 MOL      0.236485
     41 N4          4.5610   -3.3630   -1.9230 n         1 MOL     -0.182026
     42 C13         5.6350   -2.8140   -2.7840 c3        1 MOL      0.007035
     43 C14         6.7450   -2.2130   -1.9530 c         1 MOL      0.406636
     44 O6          7.8350   -1.9750   -2.4610 o         1 MOL     -0.529090
     45 C15         5.0460   -1.7190   -3.7170 c3        1 MOL     -0.196670
     46 C16         4.2360   -0.6270   -3.0380 c         1 MOL      0.760447
     47 O7          4.6750   -0.0630   -1.9870 o         1 MOL     -0.716788
     48 O8          3.0590   -0.4870   -3.3730 o         1 MOL     -0.716788
     49 H21         3.9090   -2.6650   -1.5670 hn        1 MOL      0.190046
     50 H22         6.0010   -3.5790   -3.4650 h1        1 MOL      0.115694
     51 H23         4.4110   -2.1680   -4.4740 hc        1 MOL      0.062505
     52 H24         5.8260   -1.1650   -4.2460 hc        1 MOL      0.062505
     53 N5          6.5030   -1.9190   -0.6550 n         1 MOL     -0.036006
     54 C17         7.3430   -1.5360    0.3530 c3        1 MOL     -0.135627
     55 C18         7.5990   -0.0320    0.5090 c         1 MOL      0.515763
     56 O9          8.5450    0.4300    1.1760 o         1 MOL     -0.560151
     57 H25         5.5550   -2.1280   -0.3990 hn        1 MOL      0.059189
     58 H26         8.2890   -2.0490    0.1740 h1        1 MOL      0.086522
     59 H27         6.9890   -1.8910    1.3230 h1        1 MOL      0.086522
     60 N6          6.7450    0.8130   -0.1680 n         1 MOL     -0.052427
     61 C19         6.9070    2.2580   -0.1070 c3        1 MOL      0.214380
     62 C20         5.5910    3.0100   -0.0920 c         1 MOL      0.537478
     63 O10         4.5510    2.3780   -0.3180 o         1 MOL     -0.427432
     64 C21         7.8990    2.7610   -1.1900 c3        1 MOL     -0.492847
     65 C22         7.2330    2.9350   -2.5890 c         1 MOL      0.755042
     66 N7          6.8460    1.9120   -3.3280 n         1 MOL     -0.809466
     67 O11         7.0090    4.0260   -3.0960 o         1 MOL     -0.602845
     68 H28         5.9780    0.4110   -0.6740 hn        1 MOL     -0.219306
     69 H29         7.2620    2.4860    0.8980 h1        1 MOL      0.033950
     70 H30         8.8010    2.1430   -1.2030 hc        1 MOL      0.135267
     71 H31         8.2860    3.6990   -0.8010 hc        1 MOL      0.135267
     72 H32         6.9910    1.0160   -2.8900 hn        1 MOL      0.394440
     73 H33         6.3600    2.0330   -4.2040 hn        1 MOL      0.394440
     74 N8          5.5680    4.2790    0.0200 n         1 MOL     -0.539919
     75 C23         4.3760    5.0600   -0.2670 c3        1 MOL     -0.021564
     76 C24         3.3020    4.9630    0.7900 c         1 MOL      0.593085
     77 O12         3.5930    4.5310    1.9400 o         1 MOL     -0.489777
     78 H34         6.3660    4.8340    0.2780 hn        1 MOL      0.348714
     79 H35         4.0580    4.7420   -1.2620 h1        1 MOL      0.097543
     80 H36         4.6350    6.1110   -0.3630 h1        1 MOL      0.097543
     81 N9          2.0260    5.2130    0.3670 n         1 MOL     -0.604100
     82 C25         0.8610    4.7290    1.1210 c3        1 MOL      0.162616
     83 C26         0.8240    3.2100    1.3350 c         1 MOL      0.498716
     84 O13         1.4470    2.5180    0.5310 o         1 MOL     -0.606873
     85 C27        -0.4300    4.9190    0.3140 c3        1 MOL     -0.078161
     86 C28        -0.8360    6.3540   -0.0610 ca        1 MOL      0.160888
     87 C29        -1.1530    6.6420   -1.4630 ca        1 MOL     -0.293899
     88 C30        -0.9930    7.3040    0.9050 ca        1 MOL     -0.293899
     89 C31        -1.6280    7.9050   -1.7880 ca        1 MOL     -0.080844
     90 C32        -1.3170    8.6580    0.4810 ca        1 MOL     -0.080844
     91 C33        -1.6180    8.9680   -0.8890 ca        1 MOL      0.147905
     92 O14        -2.1350   10.1430   -1.1890 oh        1 MOL     -0.417421
     93 H37         1.8250    5.4810   -0.5840 hn        1 MOL      0.268636
     94 H38         0.7910    5.2630    2.0800 h1        1 MOL      0.081225
     95 H39        -1.3100    4.5510    0.8410 hc        1 MOL      0.051764
     96 H40        -0.5290    4.2370   -0.5190 hc        1 MOL      0.051764
     97 H41        -1.0630    5.8890   -2.2320 ha        1 MOL      0.149622
     98 H42        -0.9230    7.0860    1.9610 ha        1 MOL      0.149622
     99 H43        -1.8570    8.0890   -2.8290 ha        1 MOL      0.113170
    100 H44        -1.5270    9.5290    1.0880 ha        1 MOL      0.113170
    101 H45        -2.0810   10.3620   -2.1230 ho        1 MOL      0.370452
    102 N10         0.1310    2.7350    2.4190 n         1 MOL     -0.622428
    103 C34         0.3220    1.3960    2.9410 c3        1 MOL      0.174253
    104 C35         0.1410    0.2660    1.9270 c         1 MOL      0.210907
    105 O15         0.9780   -0.1160    1.1220 o         1 MOL      0.039354
    106 C36         1.6040    1.3190    3.8120 c3        1 MOL      0.395347
    107 C37         1.5630    0.1120    4.6610 c3        1 MOL     -0.248873
    108 C38         2.0180    2.5940    4.5420 c3        1 MOL     -0.127294
    109 C39         0.4660    0.0260    5.7660 c3        1 MOL     -0.253780
    110 H46        -0.4160    3.4040    2.9320 hn        1 MOL      0.321441
    111 H47        -0.4930    1.2380    3.6410 h1        1 MOL      0.037381
    112 H48         2.4360    0.9680    3.2020 hc        1 MOL     -0.077097
    113 H49         2.5260    0.1220    5.1830 hc        1 MOL      0.090031
    114 H50         1.4420   -0.8070    4.0870 hc        1 MOL      0.090031
    115 H51         2.2350    3.4010    3.8400 hc        1 MOL      0.019444
    116 H52         1.1830    2.9120    5.1580 hc        1 MOL      0.019444
    117 H53         2.9100    2.3430    5.1330 hc        1 MOL      0.019444
    118 H54         0.5100    0.8720    6.4500 hc        1 MOL      0.061311
    119 H55        -0.4820   -0.0740    5.2490 hc        1 MOL      0.061311
    120 H56         0.7030   -0.8890    6.3090 hc        1 MOL      0.061311
    121 N11        -1.1200   -0.2030    1.8700 n         1 MOL     -0.407361
    122 C40        -1.5030   -1.1560    0.8550 c3        1 MOL     -0.359071
    123 C41        -3.0160   -1.0730    0.7790 c         1 MOL      0.699253
    124 O16        -3.6770   -1.3730    1.7240 o         1 MOL     -0.513652
    125 C42        -1.0400   -2.6050    1.1540 c3        1 MOL      0.270221
    126 O17        -1.6610   -3.4680    0.2520 oh        1 MOL     -0.572614
    127 H57        -1.8450    0.3250    2.3330 hn        1 MOL      0.326724
    128 H58        -1.0070   -0.8100   -0.0490 h1        1 MOL      0.104408
    129 H59        -1.3120   -2.7690    2.2000 h1        1 MOL      0.104880
    130 H60         0.0130   -2.6420    0.8550 h1        1 MOL      0.104880
    131 H61        -1.3000   -3.2820   -0.6110 ho        1 MOL      0.325687
    132 N12        -3.5850   -0.6440   -0.3700 n         1 MOL     -0.579152
    133 C43        -4.9960   -0.5750   -0.6240 c3        1 MOL      0.174600
    134 C44        -5.4120   -0.5070   -2.1750 c         1 MOL      0.588613
    135 O18        -4.5380   -0.2680   -2.9930 o         1 MOL     -0.550927
    136 C45        -5.5450    0.6600    0.1690 c3        1 MOL     -0.140949
    137 H62        -2.9560   -0.4390   -1.1290 hn        1 MOL      0.248775
    138 H63        -5.4700   -1.4180   -0.1300 h1        1 MOL      0.058115
    139 H64        -5.5630    1.4080   -0.6220 hc        1 MOL      0.041464
    140 H65        -6.6070    0.5370    0.4080 hc        1 MOL      0.041464
    141 H66        -4.9180    0.9770    1.0030 hc        1 MOL      0.041464
    142 N13        -6.7310   -0.5750   -2.5530 n         1 MOL     -0.565709
    143 C46        -7.8340   -1.3090   -1.9280 c3        1 MOL      0.142904
    144 C47        -9.2250   -0.6260   -2.2230 c         1 MOL      0.427317
    145 O19        -9.3400   -0.0790   -3.2890 o         1 MOL     -0.491642
    146 C48        -7.6720   -2.8110   -2.3170 c3        1 MOL     -0.097513
    147 H67        -6.9440   -0.2340   -3.4750 hn        1 MOL      0.338545
    148 H68        -7.7310   -1.2580   -0.8410 h1        1 MOL      0.025870
    149 H69        -8.5590   -3.4140   -2.0950 hc        1 MOL      0.035087
    150 H70        -7.4150   -2.9680   -3.3690 hc        1 MOL      0.035087
    151 H71        -6.8240   -3.2250   -1.7870 hc        1 MOL      0.035087
    152 N14       -10.2710   -0.5670   -1.2930 n         1 MOL     -0.343382
    153 C49       -10.2860   -1.2090    0.0250 c3        1 MOL     -0.154703
    154 C50        -9.7140   -0.3690    1.1850 c         1 MOL      0.642452
    155 O20        -9.3080   -0.8830    2.2070 o         1 MOL     -0.570470
    156 C51       -11.7100   -1.5710    0.3650 c3        1 MOL      0.005195
    157 C52       -12.7400   -0.4120    0.6490 c3        1 MOL     -0.177302
    158 C53       -12.9450    0.4810   -0.5830 c         1 MOL      0.707944
    159 O21       -12.4470    1.6300   -0.5050 o         1 MOL     -0.662319
    160 O22       -13.3110    0.0980   -1.6860 o         1 MOL     -0.662319
    161 H72       -11.0170    0.0520   -1.5770 hn        1 MOL      0.318789
    162 H73        -9.6270   -2.0700    0.0280 h1        1 MOL      0.081267
    163 H74       -11.6430   -2.2270    1.2300 hc        1 MOL      0.025009
    164 H75       -12.1850   -2.1860   -0.4080 hc        1 MOL      0.025009
    165 H76       -12.4120    0.2280    1.4680 hc        1 MOL      0.026718
    166 H77       -13.7460   -0.7360    0.9220 hc        1 MOL      0.026718
    167 N15        -9.5020    0.9650    0.9650 n         1 MOL     -0.235045
    168 C54        -8.9090    1.8960    1.9470 c3        1 MOL     -0.388006
    169 H78        -9.0070    2.9180    1.5830 h1        1 MOL      0.143437
    170 H79        -9.4270    1.7990    2.9010 h1        1 MOL      0.143437
    171 H80        -7.8530    1.6580    2.0820 h1        1 MOL      0.143437
    172 H81        -9.9690    1.3870    0.1790 hn        1 MOL      0.202388
    173 Ca1         2.6180    0.6410   -0.7720 Ca        1 MOL      1.707406
    174 O23         0.0980    0.6820   -1.8680 oh        1 MOL     -0.795379
    175 H82        -0.1180   -0.0350   -2.4700 ho        1 MOL      0.390993
    176 H83        -0.7520    1.0680   -1.6420 ho        1 MOL      0.390993
    177 O24         1.5490   -1.8870   -1.7820 oh        1 MOL     -0.795379
    178 H84         0.7040   -2.3360   -1.8300 ho        1 MOL      0.390993
    179 H85         1.8270   -1.8180   -2.7000 ho        1 MOL      0.390993
    180 O25         2.2030    2.6440   -2.6080 oh        1 MOL     -0.795379
    181 H86         1.9780    3.5730   -2.6050 ho        1 MOL      0.390993
    182 H87         1.5890    2.2450   -3.2380 ho        1 MOL      0.390993
@<TRIPOS>BOND
     1    1    2 1   
     2    1    4 1   
     3    1    5 1   
     4    1    6 1   
     5    2    3 2   
     6    2    7 1   
     7    7    8 1   
     8    7   15 1   
     9    8    9 1   
    10    8   11 1   
    11    8   16 1   
    12    9   10 2   
    13    9   19 1   
    14   11   12 1   
    15   11   17 1   
    16   11   18 1   
    17   12   13 1   
    18   12   14 1   
    19   19   20 1   
    20   19   28 1   
    21   20   21 1   
    22   20   23 1   
    23   20   29 1   
    24   21   22 2   
    25   21   41 1   
    26   23   24 1   
    27   23   30 1   
    28   23   31 1   
    29   24   25 1   
    30   24   32 1   
    31   24   33 1   
    32   25   26 1   
    33   25   34 1   
    34   25   35 1   
    35   26   27 1   
    36   26   36 1   
    37   26   37 1   
    38   27   38 1   
    39   27   39 1   
    40   27   40 1   
    41   41   42 1   
    42   41   49 1   
    43   42   43 1   
    44   42   45 1   
    45   42   50 1   
    46   43   44 2   
    47   43   53 1   
    48   45   46 1   
    49   45   51 1   
    50   45   52 1   
    51   46   47 1   
    52   46   48 1   
    53   53   54 1   
    54   53   57 1   
    55   54   55 1   
    56   54   58 1   
    57   54   59 1   
    58   55   56 2   
    59   55   60 1   
    60   60   61 1   
    61   60   68 1   
    62   61   62 1   
    63   61   64 1   
    64   61   69 1   
    65   62   63 2   
    66   62   74 1   
    67   64   65 1   
    68   64   70 1   
    69   64   71 1   
    70   65   66 1   
    71   65   67 2   
    72   66   72 1   
    73   66   73 1   
    74   74   75 1   
    75   74   78 1   
    76   75   76 1   
    77   75   79 1   
    78   75   80 1   
    79   76   77 2   
    80   76   81 1   
    81   81   82 1   
    82   81   93 1   
    83   82   83 1   
    84   82   85 1   
    85   82   94 1   
    86   83   84 2   
    87   83  102 1   
    88   85   86 1   
    89   85   95 1   
    90   85   96 1   
    91   86   87 ar  
    92   86   88 ar  
    93   87   89 ar  
    94   87   97 1   
    95   88   90 ar  
    96   88   98 1   
    97   89   91 ar  
    98   89   99 1   
    99   90   91 ar  
   100   90  100 1   
   101   91   92 1   
   102   92  101 1   
   103  102  103 1   
   104  102  110 1   
   105  103  104 1   
   106  103  106 1   
   107  103  111 1   
   108  104  105 2   
   109  104  121 1   
   110  106  107 1   
   111  106  108 1   
   112  106  112 1   
   113  107  109 1   
   114  107  113 1   
   115  107  114 1   
   116  108  115 1   
   117  108  116 1   
   118  108  117 1   
   119  109  118 1   
   120  109  119 1   
   121  109  120 1   
   122  121  122 1   
   123  121  127 1   
   124  122  123 1   
   125  122  125 1   
   126  122  128 1   
   127  123  124 2   
   128  123  132 1   
   129  125  126 1   
   130  125  129 1   
   131  125  130 1   
   132  126  131 1   
   133  132  133 1   
   134  132  137 1   
   135  133  134 1   
   136  133  136 1   
   137  133  138 1   
   138  134  135 2   
   139  134  142 1   
   140  136  139 1   
   141  136  140 1   
   142  136  141 1   
   143  142  143 1   
   144  142  147 1   
   145  143  144 1   
   146  143  146 1   
   147  143  148 1   
   148  144  145 2   
   149  144  152 1   
   150  146  149 1   
   151  146  150 1   
   152  146  151 1   
   153  152  153 1   
   154  152  161 1   
   155  153  154 1   
   156  153  156 1   
   157  153  162 1   
   158  154  155 2   
   159  154  167 1   
   160  156  157 1   
   161  156  163 1   
   162  156  164 1   
   163  157  158 1   
   164  157  165 1   
   165  157  166 1   
   166  158  159 1   
   167  158  160 1   
   168  167  168 1   
   169  167  172 1   
   170  168  169 1   
   171  168  170 1   
   172  168  171 1   
   173  174  175 1   
   174  174  176 1   
   175  177  178 1   
   176  177  179 1   
   177  180  181 1   
   178  180  182 1   
@<TRIPOS>SUBSTRUCTURE
     1 MOL         1 TEMP              0 ****  ****    0 ROOT
