@<TRIPOS>MOLECULE
MOL
  182   178     1     0     0
SMALL
resp


@<TRIPOS>ATOM
      1 C1          0.1190   -3.2090    6.4080 c3        1 MOL     -0.312067
      2 C2          0.4350   -3.2250    4.8940 c         1 MOL      0.734544
      3 O1         -0.4650   -3.5120    4.0520 o         1 MOL     -0.607103
      4 H1         -0.8910   -3.5840    6.5720 hc        1 MOL      0.094676
      5 H2          0.8310   -3.8430    6.9350 hc        1 MOL      0.094676
      6 H3          0.1920   -2.1880    6.7840 hc        1 MOL      0.094676
      7 N1          1.7170   -2.9840    4.4930 n         1 MOL     -0.622353
      8 C3          2.1960   -2.9100    3.1610 c3        1 MOL      0.035959
      9 C4          2.5580   -4.3270    2.5220 c         1 MOL      0.644098
     10 O2          3.0330   -5.1760    3.2120 o         1 MOL     -0.564905
     11 C5          3.3620   -1.9410    3.1670 c3        1 MOL      0.044767
     12 C6          3.6620   -1.3410    1.8110 c         1 MOL      0.406622
     13 O3          4.3540   -0.2760    1.6570 o         1 MOL     -0.677863
     14 O4          2.9620   -1.7300    0.8050 o         1 MOL     -0.677863
     15 H4          2.3940   -2.9770    5.2480 hn        1 MOL      0.312848
     16 H5          1.3310   -2.4960    2.6490 h1        1 MOL      0.014317
     17 H6          4.1760   -2.4870    3.6490 hc        1 MOL      0.054908
     18 H7          3.2700   -1.1280    3.8950 hc        1 MOL      0.054908
     19 N2          2.5530   -4.3620    1.2330 n         1 MOL     -0.450614
     20 C7          2.6240   -5.5530    0.3370 c3        1 MOL      0.086293
     21 C8          4.0050   -5.4710   -0.4470 c         1 MOL      0.419683
     22 O5          4.6010   -6.4940   -0.7810 o         1 MOL     -0.563341
     23 C9          1.4640   -5.5090   -0.6650 c3        1 MOL      0.080538
     24 C10         1.4580   -6.8100   -1.4640 c3        1 MOL     -0.017782
     25 C11         0.1810   -7.0050   -2.2650 c3        1 MOL     -0.149012
     26 C12         0.2110   -8.3630   -2.8810 c3        1 MOL      0.086789
     27 N3         -1.0530   -8.7240   -3.5830 n4        1 MOL     -0.202242
     28 H8          2.4330   -3.4990    0.7040 hn        1 MOL      0.229579
     29 H9          2.7400   -6.4790    0.9050 h1        1 MOL      0.076235
     30 H10         1.6260   -4.6310   -1.2900 hc        1 MOL     -0.041847
     31 H11         0.5640   -5.3710   -0.0580 hc        1 MOL     -0.041847
     32 H12         1.5050   -7.6290   -0.7500 hc        1 MOL      0.041802
     33 H13         2.3460   -6.8140   -2.0860 hc        1 MOL      0.041802
     34 H14         0.1300   -6.2360   -3.0380 hc        1 MOL      0.068730
     35 H15        -0.6250   -6.9770   -1.5280 hc        1 MOL      0.068730
     36 H16         0.4740   -9.0140   -2.0400 hx        1 MOL      0.057678
     37 H17         0.9330   -8.4050   -3.6970 hx        1 MOL      0.057678
     38 H18        -1.3130   -7.9910   -4.2330 hn        1 MOL      0.227064
     39 H19        -0.8710   -9.6070   -4.0370 hn        1 MOL      0.227064
     40 H20        -1.8160   -8.8350   -2.9350 hn        1 MOL      0.227064
     41 N4          4.4320   -4.2380   -0.7680 n         1 MOL     -0.095979
     42 C13         5.5950   -3.9860   -1.6210 c3        1 MOL     -0.150538
     43 C14         6.6800   -3.0770   -1.0050 c         1 MOL      0.462176
     44 O6          7.6690   -2.8180   -1.6640 o         1 MOL     -0.504624
     45 C15         4.9890   -3.3460   -2.8960 c3        1 MOL     -0.371127
     46 C16         4.3010   -1.9960   -2.6550 c         1 MOL      0.755826
     47 O7          3.5460   -1.6240   -3.5830 o         1 MOL     -0.767906
     48 O8          4.4350   -1.4000   -1.5640 o         1 MOL     -0.767906
     49 H21         3.7090   -3.5350   -0.7270 hn        1 MOL      0.233650
     50 H22         6.1130   -4.9140   -1.8810 h1        1 MOL      0.157431
     51 H23         4.1990   -3.9860   -3.3030 hc        1 MOL      0.129280
     52 H24         5.7180   -3.4130   -3.6970 hc        1 MOL      0.129280
     53 N5          6.4690   -2.7460    0.2980 n         1 MOL     -0.266727
     54 C17         7.3470   -1.9620    1.1090 c3        1 MOL      0.104166
     55 C18         7.8170   -0.5730    0.6460 c         1 MOL      0.377479
     56 O9          8.9420   -0.1460    0.9360 o         1 MOL     -0.535689
     57 H25         5.6260   -3.1170    0.7050 hn        1 MOL      0.145182
     58 H26         8.2230   -2.5200    1.4420 h1        1 MOL      0.028858
     59 H27         6.8090   -1.8030    2.0420 h1        1 MOL      0.028858
     60 N6          7.0150    0.0470   -0.1350 n         1 MOL     -0.214371
     61 C19         7.2480    1.2310   -0.8700 c3        1 MOL      0.111008
     62 C20         6.0670    2.2000   -0.8620 c         1 MOL      0.488814
     63 O10         4.9280    1.7650   -0.6870 o         1 MOL     -0.552765
     64 C21         7.5840    0.7280   -2.3160 c3        1 MOL     -0.379593
     65 C22         7.8250    1.8430   -3.3030 c         1 MOL      0.666474
     66 N7          6.9250    2.1010   -4.1870 n         1 MOL     -0.747297
     67 O11         8.7650    2.6630   -3.1710 o         1 MOL     -0.584555
     68 H28         6.1750   -0.4410   -0.3880 hn        1 MOL      0.366262
     69 H29         8.1170    1.7440   -0.4530 h1        1 MOL      0.052798
     70 H30         6.7810    0.0820   -2.6660 hc        1 MOL      0.142862
     71 H31         8.5120    0.1680   -2.3630 hc        1 MOL      0.142862
     72 H32         6.0760    1.5780   -4.3170 hn        1 MOL      0.341096
     73 H33         7.0770    2.8300   -4.8710 hn        1 MOL      0.341096
     74 N8          6.3010    3.4270   -1.0370 n         1 MOL     -0.373837
     75 C23         5.1890    4.3820   -1.1070 c3        1 MOL     -0.105199
     76 C24         4.3980    4.6650    0.2090 c         1 MOL      0.605345
     77 O12         4.9520    4.5840    1.3350 o         1 MOL     -0.499845
     78 H34         7.2080    3.8300   -0.8750 hn        1 MOL      0.335459
     79 H35         4.4510    4.1490   -1.8820 h1        1 MOL      0.080346
     80 H36         5.5060    5.3280   -1.5410 h1        1 MOL      0.080346
     81 N9          3.1230    5.0160   -0.0260 n         1 MOL     -0.730490
     82 C25         2.0210    4.9430    0.9880 c3        1 MOL      0.587127
     83 C26         1.7120    3.4370    1.2820 c         1 MOL      0.267999
     84 O13         2.4030    2.5350    0.8590 o         1 MOL     -0.402516
     85 C27         0.8390    5.8440    0.5150 c3        1 MOL     -0.131172
     86 C28         1.0760    7.2810    0.1070 ca        1 MOL      0.210144
     87 C29         2.0330    8.0630    0.7380 ca        1 MOL     -0.299515
     88 C30         0.3230    7.8270   -0.9930 ca        1 MOL     -0.299515
     89 C31         2.1990    9.4110    0.3200 ca        1 MOL     -0.164531
     90 C32         0.4660    9.1800   -1.3130 ca        1 MOL     -0.164531
     91 C33         1.3760   10.0170   -0.6690 ca        1 MOL      0.268466
     92 O14         1.4240   11.3400   -0.9310 oh        1 MOL     -0.455354
     93 H37         2.9310    5.1760   -1.0050 hn        1 MOL      0.318904
     94 H38         2.3230    5.4440    1.9010 h1        1 MOL     -0.016062
     95 H39         0.1200    5.8220    1.3240 hc        1 MOL     -0.006356
     96 H40         0.3310    5.3790   -0.3370 hc        1 MOL     -0.006356
     97 H41         2.6480    7.6630    1.5340 ha        1 MOL      0.170948
     98 H42        -0.4880    7.2400   -1.4010 ha        1 MOL      0.170948
     99 H43         2.9490   10.0360    0.7800 ha        1 MOL      0.137093
    100 H44        -0.2550    9.6170   -1.9980 ha        1 MOL      0.137093
    101 H45         0.8950   11.6220   -1.6860 ho        1 MOL      0.367017
    102 N10         0.6600    3.2120    2.0840 n         1 MOL     -0.601842
    103 C34         0.0470    1.8690    2.5160 c3        1 MOL     -0.047622
    104 C35        -0.3950    0.8630    1.4260 c         1 MOL      0.662026
    105 O15         0.4410    0.4520    0.6070 o         1 MOL     -0.574433
    106 C36         0.9220    1.1930    3.6000 c3        1 MOL      0.590039
    107 C37         0.2480    0.0330    4.3570 c3        1 MOL     -0.279866
    108 C38         1.5340    2.1530    4.6880 c3        1 MOL     -0.359775
    109 C39        -1.0450    0.3240    5.1690 c3        1 MOL     -0.282944
    110 H46         0.2360    4.0640    2.4310 hn        1 MOL      0.335540
    111 H47        -0.9260    2.1430    2.9280 h1        1 MOL      0.040198
    112 H48         1.7210    0.7350    3.0170 hc        1 MOL     -0.065934
    113 H49         1.0270   -0.4100    4.9640 hc        1 MOL      0.084263
    114 H50         0.0120   -0.7730    3.6650 hc        1 MOL      0.084263
    115 H51         2.0640    1.5090    5.4070 hc        1 MOL      0.083323
    116 H52         2.2470    2.8250    4.2050 hc        1 MOL      0.083323
    117 H53         0.6990    2.7830    4.9790 hc        1 MOL      0.083323
    118 H54        -1.5400   -0.6310    5.3640 hc        1 MOL      0.079527
    119 H55        -0.7880    0.8140    6.1060 hc        1 MOL      0.079527
    120 H56        -1.7680    0.9620    4.6540 hc        1 MOL      0.079527
    121 N11        -1.6610    0.3260    1.4210 n         1 MOL     -0.579276
    122 C40        -1.9080   -0.8690    0.4610 c3        1 MOL     -0.096570
    123 C41        -3.4070   -1.0610    0.1080 c         1 MOL      0.670460
    124 O16        -3.6610   -1.7740   -0.8960 o         1 MOL     -0.557943
    125 C42        -1.5240   -2.2180    1.0560 c3        1 MOL      0.286149
    126 O17        -2.1510   -2.4110    2.3090 oh        1 MOL     -0.643303
    127 H57        -2.3170    0.6330    2.1220 hn        1 MOL      0.324760
    128 H58        -1.3550   -0.7700   -0.4760 h1        1 MOL      0.123173
    129 H59        -0.4510   -2.1410    1.2190 h1        1 MOL     -0.003680
    130 H60        -1.7390   -3.1120    0.4670 h1        1 MOL     -0.003680
    131 H61        -1.5920   -3.0280    2.7830 ho        1 MOL      0.446710
    132 N12        -4.4030   -0.3850    0.7860 n         1 MOL     -0.583402
    133 C43        -5.8360   -0.2880    0.2970 c3        1 MOL      0.059954
    134 C44        -5.9790    0.1400   -1.1950 c         1 MOL      0.725405
    135 O18        -5.0750    0.7360   -1.7400 o         1 MOL     -0.572129
    136 C45        -6.7100    0.6200    1.0950 c3        1 MOL     -0.335906
    137 H62        -4.0510    0.2950    1.4330 hn        1 MOL      0.336001
    138 H63        -6.2830   -1.2720    0.3820 h1        1 MOL      0.129812
    139 H64        -6.8870    0.2230    2.0890 hc        1 MOL      0.108652
    140 H65        -6.3120    1.6330    1.1190 hc        1 MOL      0.108652
    141 H66        -7.6800    0.5950    0.5920 hc        1 MOL      0.108652
    142 N13        -7.0950   -0.0790   -1.9380 n         1 MOL     -0.764156
    143 C46        -8.4090   -0.6430   -1.7290 c3        1 MOL      0.435264
    144 C47        -9.4150    0.0150   -2.5820 c         1 MOL      0.414078
    145 O19        -9.0510    0.3420   -3.6850 o         1 MOL     -0.553340
    146 C48        -8.2760   -2.1010   -1.9680 c3        1 MOL     -0.227513
    147 H67        -7.0250    0.1040   -2.9310 hn        1 MOL      0.354497
    148 H68        -8.6570   -0.4830   -0.6820 h1        1 MOL     -0.038017
    149 H69        -7.5230   -2.3840   -1.2280 hc        1 MOL      0.058512
    150 H70        -9.2330   -2.5900   -1.7940 hc        1 MOL      0.058512
    151 H71        -8.0360   -2.2830   -3.0060 hc        1 MOL      0.058512
    152 N14       -10.6330    0.3320   -2.1750 n         1 MOL     -0.264544
    153 C49       -11.2260    0.0460   -0.8540 c3        1 MOL     -0.396802
    154 C50       -10.7330    1.0730    0.2420 c         1 MOL      0.517430
    155 O20       -10.7930    0.7760    1.4390 o         1 MOL     -0.514670
    156 C51       -12.6750    0.1440   -1.0010 c3        1 MOL      0.291601
    157 C52       -13.5020   -0.4600    0.1400 c3        1 MOL     -0.273266
    158 C53       -14.9880   -0.6130   -0.1970 c         1 MOL      0.688457
    159 O21       -15.3200   -1.6870   -0.7650 o         1 MOL     -0.645325
    160 O22       -15.7410    0.3720   -0.0620 o         1 MOL     -0.645325
    161 H72       -11.2340    0.8530   -2.8040 hn        1 MOL      0.251797
    162 H73       -11.0620   -0.9990   -0.6400 h1        1 MOL      0.171796
    163 H74       -12.9270   -0.4090   -1.9040 hc        1 MOL     -0.015431
    164 H75       -13.0070    1.1590   -1.2390 hc        1 MOL     -0.015431
    165 H76       -13.3680    0.1720    1.0120 hc        1 MOL      0.050542
    166 H77       -13.1280   -1.4340    0.4620 hc        1 MOL      0.050542
    167 N15       -10.2050    2.2170   -0.1740 n         1 MOL     -0.283992
    168 C54        -9.5120    3.2440    0.6900 c3        1 MOL     -0.173548
    169 H78        -9.3600    4.1580    0.1150 h1        1 MOL      0.096690
    170 H79       -10.1300    3.4630    1.5610 h1        1 MOL      0.096690
    171 H80        -8.5480    2.8550    1.0150 h1        1 MOL      0.096690
    172 H81       -10.2660    2.3830   -1.1690 hn        1 MOL      0.246951
    173 Ca1         2.6220    0.3740   -0.8110 Ca        1 MOL      1.801430
    174 O23         1.2740   -1.5920   -2.2730 oh        1 MOL     -0.898816
    175 H82         0.6810   -2.3150   -2.4800 ho        1 MOL      0.439941
    176 H83         2.0100   -1.7080   -2.8630 ho        1 MOL      0.439941
    177 O24         3.4470    1.4230   -3.1720 oh        1 MOL     -0.898816
    178 H84         3.1430    2.0090   -3.8600 ho        1 MOL      0.439941
    179 H85         3.9470    0.7470   -3.6260 ho        1 MOL      0.439941
    180 O25         0.8770    2.1150   -1.8080 oh        1 MOL     -0.898816
    181 H86         0.1980    2.4620   -1.2270 ho        1 MOL      0.439941
    182 H87         0.7780    2.6070   -2.6120 ho        1 MOL      0.439941
@<TRIPOS>BOND
     1    1    2 1   
     2    1    4 1   
     3    1    5 1   
     4    1    6 1   
     5    2    3 2   
     6    2    7 1   
     7    7    8 1   
     8    7   15 1   
     9    8    9 1   
    10    8   11 1   
    11    8   16 1   
    12    9   10 2   
    13    9   19 1   
    14   11   12 1   
    15   11   17 1   
    16   11   18 1   
    17   12   13 1   
    18   12   14 1   
    19   19   20 1   
    20   19   28 1   
    21   20   21 1   
    22   20   23 1   
    23   20   29 1   
    24   21   22 2   
    25   21   41 1   
    26   23   24 1   
    27   23   30 1   
    28   23   31 1   
    29   24   25 1   
    30   24   32 1   
    31   24   33 1   
    32   25   26 1   
    33   25   34 1   
    34   25   35 1   
    35   26   27 1   
    36   26   36 1   
    37   26   37 1   
    38   27   38 1   
    39   27   39 1   
    40   27   40 1   
    41   41   42 1   
    42   41   49 1   
    43   42   43 1   
    44   42   45 1   
    45   42   50 1   
    46   43   44 2   
    47   43   53 1   
    48   45   46 1   
    49   45   51 1   
    50   45   52 1   
    51   46   47 1   
    52   46   48 1   
    53   53   54 1   
    54   53   57 1   
    55   54   55 1   
    56   54   58 1   
    57   54   59 1   
    58   55   56 2   
    59   55   60 1   
    60   60   61 1   
    61   60   68 1   
    62   61   62 1   
    63   61   64 1   
    64   61   69 1   
    65   62   63 2   
    66   62   74 1   
    67   64   65 1   
    68   64   70 1   
    69   64   71 1   
    70   65   66 1   
    71   65   67 2   
    72   66   72 1   
    73   66   73 1   
    74   74   75 1   
    75   74   78 1   
    76   75   76 1   
    77   75   79 1   
    78   75   80 1   
    79   76   77 2   
    80   76   81 1   
    81   81   82 1   
    82   81   93 1   
    83   82   83 1   
    84   82   85 1   
    85   82   94 1   
    86   83   84 2   
    87   83  102 1   
    88   85   86 1   
    89   85   95 1   
    90   85   96 1   
    91   86   87 ar  
    92   86   88 ar  
    93   87   89 ar  
    94   87   97 1   
    95   88   90 ar  
    96   88   98 1   
    97   89   91 ar  
    98   89   99 1   
    99   90   91 ar  
   100   90  100 1   
   101   91   92 1   
   102   92  101 1   
   103  102  103 1   
   104  102  110 1   
   105  103  104 1   
   106  103  106 1   
   107  103  111 1   
   108  104  105 2   
   109  104  121 1   
   110  106  107 1   
   111  106  108 1   
   112  106  112 1   
   113  107  109 1   
   114  107  113 1   
   115  107  114 1   
   116  108  115 1   
   117  108  116 1   
   118  108  117 1   
   119  109  118 1   
   120  109  119 1   
   121  109  120 1   
   122  121  122 1   
   123  121  127 1   
   124  122  123 1   
   125  122  125 1   
   126  122  128 1   
   127  123  124 2   
   128  123  132 1   
   129  125  126 1   
   130  125  129 1   
   131  125  130 1   
   132  126  131 1   
   133  132  133 1   
   134  132  137 1   
   135  133  134 1   
   136  133  136 1   
   137  133  138 1   
   138  134  135 2   
   139  134  142 1   
   140  136  139 1   
   141  136  140 1   
   142  136  141 1   
   143  142  143 1   
   144  142  147 1   
   145  143  144 1   
   146  143  146 1   
   147  143  148 1   
   148  144  145 2   
   149  144  152 1   
   150  146  149 1   
   151  146  150 1   
   152  146  151 1   
   153  152  153 1   
   154  152  161 1   
   155  153  154 1   
   156  153  156 1   
   157  153  162 1   
   158  154  155 2   
   159  154  167 1   
   160  156  157 1   
   161  156  163 1   
   162  156  164 1   
   163  157  158 1   
   164  157  165 1   
   165  157  166 1   
   166  158  159 1   
   167  158  160 1   
   168  167  168 1   
   169  167  172 1   
   170  168  169 1   
   171  168  170 1   
   172  168  171 1   
   173  174  175 1   
   174  174  176 1   
   175  177  178 1   
   176  177  179 1   
   177  180  181 1   
   178  180  182 1   
@<TRIPOS>SUBSTRUCTURE
     1 MOL         1 TEMP              0 ****  ****    0 ROOT
