@<TRIPOS>MOLECULE
MOL
  181   177     1     0     0
SMALL
resp


@<TRIPOS>ATOM
      1 C1          3.9170   -2.9810    3.7300 c3        1 MOL     -0.269189
      2 C2          5.1300   -1.9820    3.8250 c         1 MOL      0.700306
      3 O1          5.1440   -1.0440    4.6220 o         1 MOL     -0.573251
      4 H1          3.4270   -3.0500    4.7010 hc        1 MOL      0.064188
      5 H2          3.2040   -2.6190    2.9890 hc        1 MOL      0.064188
      6 H3          4.2780   -3.9660    3.4360 hc        1 MOL      0.064188
      7 N1          6.0750   -2.1330    2.8780 n         1 MOL     -0.843215
      8 C3          7.0620   -1.0900    2.6690 c3        1 MOL      0.611904
      9 C4          7.2180   -0.7180    1.1930 c         1 MOL      0.507305
     10 O2          7.0460   -1.5290    0.3010 o         1 MOL     -0.601982
     11 C5          8.3380   -1.4480    3.3700 c3        1 MOL     -0.228807
     12 C6          9.2800   -0.2050    3.7080 c         1 MOL      0.678516
     13 O3         10.0150   -0.2650    4.7130 o         1 MOL     -0.701975
     14 O4          9.1310    0.8240    2.9920 o         1 MOL     -0.701975
     15 H4          5.9120   -2.8110    2.1480 hn        1 MOL      0.374914
     16 H5          6.7860   -0.1240    3.0920 h1        1 MOL     -0.037207
     17 H6          8.8660   -2.1770    2.7360 hc        1 MOL     -0.001634
     18 H7          8.0770   -1.8820    4.3320 hc        1 MOL     -0.001634
     19 N2          7.5410    0.5280    0.8600 n         1 MOL     -0.601186
     20 C7          7.4050    1.0450   -0.5690 c3        1 MOL      0.536666
     21 C8          5.9230    1.1750   -0.8860 c         1 MOL      0.398684
     22 O5          5.0500    0.8590   -0.0800 o         1 MOL     -0.541614
     23 C9          8.3030    2.2720   -0.8270 c3        1 MOL     -0.349794
     24 H8          7.9130    1.1180    1.5950 hn        1 MOL      0.281229
     25 H9          7.7970    0.2290   -1.1720 h1        1 MOL     -0.027622
     26 H10         7.9670    2.6470   -1.7840 hc        1 MOL      0.077452
     27 H11         7.9930    3.0600   -0.1370 hc        1 MOL      0.077452
     28 H12         9.3600    1.9950   -0.7560 hc        1 MOL      0.077452
     29 N3          5.6090    1.4590   -2.1570 n         1 MOL     -0.434487
     30 C10         4.2280    1.7460   -2.5780 c3        1 MOL     -0.079447
     31 C11         4.2650    3.0840   -3.2920 c         1 MOL      0.638024
     32 O6          5.1930    3.4270   -4.0250 o         1 MOL     -0.546460
     33 C12         3.7070    0.6930   -3.5870 c3        1 MOL     -0.402891
     34 C13         3.8910   -0.6910   -3.0580 c         1 MOL      0.924247
     35 O7          2.9540   -1.3360   -2.4850 o         1 MOL     -0.777433
     36 O8          4.9370   -1.3560   -3.5090 o         1 MOL     -0.777433
     37 H13         6.3020    1.5440   -2.8830 hn        1 MOL      0.282031
     38 H14         3.6010    1.8180   -1.6860 h1        1 MOL      0.142881
     39 H15         4.1880    0.7260   -4.5590 hc        1 MOL      0.113429
     40 H16         2.6440    0.7920   -3.8230 hc        1 MOL      0.113429
     41 N4          3.2260    3.8870   -3.0840 n         1 MOL     -0.376423
     42 C14         3.1550    5.2160   -3.6850 c3        1 MOL     -0.184121
     43 C15         1.9470    6.0070   -3.1100 c         1 MOL      0.713758
     44 O9          2.0510    7.1600   -2.8300 o         1 MOL     -0.556794
     45 H17         2.4900    3.6290   -2.4460 hn        1 MOL      0.236314
     46 H18         3.1400    5.0600   -4.7570 h1        1 MOL      0.100779
     47 H19         4.0400    5.8180   -3.4890 h1        1 MOL      0.100779
     48 N5          0.7720    5.3230   -2.9700 n         1 MOL     -0.614642
     49 C16        -0.4920    6.0020   -2.6840 c3        1 MOL      0.085962
     50 C17        -0.8410    5.8520   -1.2160 c         1 MOL      0.671983
     51 O10        -0.6990    4.7320   -0.6710 o         1 MOL     -0.533761
     52 C18        -1.5670    5.2890   -3.5100 c3        1 MOL     -0.238956
     53 C19        -1.4170    5.5080   -4.9900 c         1 MOL      0.705715
     54 N6         -2.3930    5.1060   -5.7500 n         1 MOL     -0.833486
     55 O11        -0.4700    6.1180   -5.4900 o         1 MOL     -0.555293
     56 H20         0.7180    4.3780   -3.3060 hn        1 MOL      0.338137
     57 H21        -0.4400    7.0720   -2.8660 h1        1 MOL      0.054585
     58 H22        -2.5220    5.7040   -3.1990 hc        1 MOL      0.065068
     59 H23        -1.6320    4.1980   -3.3890 hc        1 MOL      0.065068
     60 H24        -3.0660    4.5820   -5.2120 hn        1 MOL      0.383391
     61 H25        -2.4120    5.3330   -6.7310 hn        1 MOL      0.383391
     62 N7         -1.3660    6.8900   -0.5780 n         1 MOL     -0.459413
     63 C20        -1.5590    6.8380    0.8100 c3        1 MOL     -0.210597
     64 C21        -2.9190    6.2680    1.1610 c         1 MOL      0.613742
     65 O12        -3.9000    6.2080    0.4100 o         1 MOL     -0.492184
     66 H26        -1.6040    7.7140   -1.1000 hn        1 MOL      0.306234
     67 H27        -1.7850    7.8300    1.1970 h1        1 MOL      0.125174
     68 H28        -0.6740    6.5310    1.3650 h1        1 MOL      0.125174
     69 N8         -2.8600    5.7770    2.3990 n         1 MOL     -0.499894
     70 C22        -4.0270    5.1490    3.1980 c3        1 MOL     -0.204062
     71 C23        -3.9630    3.5940    3.2870 c         1 MOL      0.785598
     72 O13        -5.0610    3.0660    3.1800 o         1 MOL     -0.575967
     73 C24        -4.1210    5.7160    4.6030 c3        1 MOL      0.380514
     74 C25        -3.0600    5.4350    5.6960 c3        1 MOL     -0.277839
     75 O14        -4.2800    7.0510    4.5120 oh        1 MOL     -0.609420
     76 H29        -1.9660    5.9290    2.8410 hn        1 MOL      0.273957
     77 H30        -4.9260    5.3390    2.6210 h1        1 MOL      0.184565
     78 H31        -5.0940    5.3610    4.9520 h1        1 MOL      0.028975
     79 H32        -3.4300    7.4790    4.3880 ho        1 MOL      0.364360
     80 H33        -2.0590    5.7300    5.3850 hc        1 MOL      0.070132
     81 H34        -3.3500    6.0030    6.5720 hc        1 MOL      0.070132
     82 H35        -3.0640    4.3770    5.9890 hc        1 MOL      0.070132
     83 N9         -2.7310    2.9790    3.3570 n         1 MOL     -0.621454
     84 C26        -2.6520    1.5460    3.4980 c3        1 MOL      0.059451
     85 C27        -1.8090    0.9190    2.4090 c         1 MOL      0.654782
     86 O15        -0.8190    1.5190    1.9630 o         1 MOL     -0.515758
     87 C28        -2.3370    1.1520    4.9170 c3        1 MOL      0.036104
     88 C29        -3.4250    1.3490    5.9820 c3        1 MOL     -0.000408
     89 C30        -1.7350   -0.2370    5.2170 c3        1 MOL     -0.103612
     90 C31        -4.5870    0.4240    5.7260 c3        1 MOL     -0.242366
     91 H36        -1.8720    3.5060    3.3190 hn        1 MOL      0.326563
     92 H37        -3.6130    1.0670    3.3080 h1        1 MOL      0.046951
     93 H38        -1.5130    1.8180    5.1940 hc        1 MOL      0.011593
     94 H39        -3.7970    2.3740    6.0170 hc        1 MOL      0.020570
     95 H40        -3.0420    1.1980    6.9860 hc        1 MOL      0.020570
     96 H41        -1.5910   -0.3940    6.2810 hc        1 MOL      0.033212
     97 H42        -2.4420   -0.9860    4.8750 hc        1 MOL      0.033212
     98 H43        -0.7990   -0.4120    4.6680 hc        1 MOL      0.033212
     99 H44        -5.0080    0.4880    4.7230 hc        1 MOL      0.061224
    100 H45        -4.3740   -0.6270    5.9350 hc        1 MOL      0.061224
    101 H46        -5.3200    0.6450    6.5120 hc        1 MOL      0.061224
    102 N10        -2.2230   -0.3130    1.9340 n         1 MOL     -0.613378
    103 C32        -1.6480   -1.2110    0.9060 c3        1 MOL      0.338974
    104 C33        -2.7310   -1.7520   -0.0160 c         1 MOL      0.265883
    105 O16        -2.7270   -2.9050   -0.4140 o         1 MOL     -0.247608
    106 C34        -0.7250   -2.2140    1.5910 c3        1 MOL     -0.335104
    107 C35         0.2980   -2.7960    0.5960 c         1 MOL      0.804280
    108 O17         0.5060   -2.2880   -0.5380 o         1 MOL     -0.762279
    109 O18         1.1100   -3.6600    1.0070 o         1 MOL     -0.762279
    110 H47        -3.0540   -0.7310    2.3350 hn        1 MOL      0.299305
    111 H48        -1.0450   -0.5830    0.2600 h1        1 MOL      0.050113
    112 H49        -1.2510   -3.0830    1.9910 hc        1 MOL      0.087732
    113 H50        -0.1750   -1.6980    2.3620 hc        1 MOL      0.087732
    114 N11        -3.7810   -0.9140   -0.3530 n         1 MOL     -0.316644
    115 C36        -4.8710   -1.3300   -1.1920 c3        1 MOL      0.149876
    116 C37        -5.4580   -2.7310   -0.9000 c         1 MOL      0.121427
    117 O19        -5.8370   -2.9850    0.2710 o         1 MOL     -0.499827
    118 C38        -6.0250   -0.2700   -0.9830 c3        1 MOL     -0.106511
    119 C39        -5.6000    1.1550   -1.2340 ca        1 MOL     -0.002214
    120 C40        -5.6010    2.1390   -0.1640 ca        1 MOL     -0.169213
    121 C41        -5.0780    1.5030   -2.4800 ca        1 MOL     -0.169213
    122 C42        -4.9970    3.4140   -0.3910 ca        1 MOL     -0.054400
    123 C43        -4.5080    2.7600   -2.6830 ca        1 MOL     -0.054400
    124 C44        -4.4220    3.6530   -1.6320 ca        1 MOL     -0.053519
    125 H51        -3.8490   -0.0100    0.0910 hn        1 MOL      0.232799
    126 H52        -4.5150   -1.2760   -2.2240 h1        1 MOL      0.016331
    127 H53        -6.4130   -0.3120    0.0290 hc        1 MOL      0.073087
    128 H54        -6.8040   -0.5230   -1.7000 hc        1 MOL      0.073087
    129 H55        -6.1030    1.9060    0.7640 ha        1 MOL      0.128487
    130 H56        -5.0860    0.8880   -3.3650 ha        1 MOL      0.128487
    131 H57        -5.0330    4.1350    0.4030 ha        1 MOL      0.046537
    132 H58        -4.1760    3.0780   -3.6630 ha        1 MOL      0.046537
    133 H59        -4.0140    4.6340   -1.8300 ha        1 MOL      0.057152
    134 N12        -5.6230   -3.5780   -1.9180 n         1 MOL      0.140255
    135 C45        -6.1320   -4.9800   -1.8370 c3        1 MOL     -0.150792
    136 C46        -5.1030   -5.9120   -1.2870 c         1 MOL      0.436659
    137 O20        -5.4340   -7.0410   -1.0210 o         1 MOL     -0.514083
    138 C47        -6.5350   -5.3370   -3.2530 c3        1 MOL      0.013289
    139 C48        -5.5520   -4.6030   -4.1740 c3        1 MOL     -0.113662
    140 C49        -5.1280   -3.3860   -3.2580 c3        1 MOL     -0.132762
    141 H60        -7.0380   -4.9780   -1.2230 h1        1 MOL      0.110484
    142 H61        -6.4810   -6.4220   -3.3690 hc        1 MOL      0.025845
    143 H62        -7.5410   -4.9610   -3.4140 hc        1 MOL      0.025845
    144 H63        -4.6950   -5.2640   -4.2840 hc        1 MOL      0.062495
    145 H64        -6.0150   -4.3130   -5.1220 hc        1 MOL      0.062495
    146 H65        -4.0480   -3.2810   -3.2020 h1        1 MOL      0.063553
    147 H66        -5.5530   -2.4560   -3.6290 h1        1 MOL      0.063553
    148 N13        -3.8040   -5.5030   -1.1090 n         1 MOL     -0.087731
    149 C50        -2.8960   -6.4760   -0.3980 c3        1 MOL     -0.234982
    150 C51        -3.2870   -6.6660    1.0740 c         1 MOL      0.541662
    151 O21        -3.4090   -7.7990    1.5060 o         1 MOL     -0.550998
    152 C52        -1.3790   -6.1230   -0.6090 c3        1 MOL      0.207541
    153 C53        -1.0300   -5.6730   -2.0410 c3        1 MOL     -0.365716
    154 C54         0.4350   -5.2360   -2.0370 c         1 MOL      0.771498
    155 O22         1.3160   -5.6760   -1.3000 o         1 MOL     -0.742790
    156 O23         0.7830   -4.4530   -2.9390 o         1 MOL     -0.742790
    157 H67        -3.5440   -4.5280   -1.2010 hn        1 MOL      0.041754
    158 H68        -3.0370   -7.4310   -0.8890 h1        1 MOL      0.128559
    159 H69        -0.9210   -7.0820   -0.3730 hc        1 MOL     -0.022109
    160 H70        -1.0390   -5.3290    0.0520 hc        1 MOL     -0.022109
    161 H71        -1.6440   -4.8950   -2.5050 hc        1 MOL      0.082943
    162 H72        -1.1610   -6.5070   -2.7320 hc        1 MOL      0.082943
    163 N14        -3.5440   -5.5650    1.7830 n         1 MOL     -0.276872
    164 C55        -3.7310   -5.5050    3.2380 c3        1 MOL     -0.111295
    165 H73        -3.6210   -6.5050    3.6590 h1        1 MOL      0.062782
    166 H74        -2.9830   -4.8440    3.6750 h1        1 MOL      0.062782
    167 H75        -4.7280   -5.1250    3.4620 h1        1 MOL      0.062782
    168 H76        -3.3350   -4.7130    1.2920 hn        1 MOL      0.248326
    169 Ca1         2.7110   -3.4950   -1.1270 Ca        1 MOL      1.779977
    170 O24         3.4980   -1.4150    0.5100 oh        1 MOL     -0.865258
    171 H77         2.7380   -0.8460    0.6030 ho        1 MOL      0.413019
    172 H78         4.1980   -0.8240    0.2010 ho        1 MOL      0.413019
    173 O25         5.3280   -2.8790   -1.2820 oh        1 MOL     -0.865258
    174 H79         5.2750   -2.3810   -2.0940 ho        1 MOL      0.413019
    175 H80         6.0000   -2.4400   -0.7660 ho        1 MOL      0.413019
    176 O26         4.2710   -4.9910    0.6090 oh        1 MOL     -0.865258
    177 H81         5.1800   -4.8810    0.8990 ho        1 MOL      0.413019
    178 H82         3.9350   -5.6980    1.1620 ho        1 MOL      0.413019
    179 O27         4.0170   -4.8590   -3.1500 oh        1 MOL     -0.865258
    180 H83         3.7710   -5.6950   -3.5580 ho        1 MOL      0.413019
    181 H84         4.9320   -4.7400   -3.4010 ho        1 MOL      0.413019
@<TRIPOS>BOND
     1    1    2 1   
     2    1    4 1   
     3    1    5 1   
     4    1    6 1   
     5    2    3 2   
     6    2    7 1   
     7    7    8 1   
     8    7   15 1   
     9    8    9 1   
    10    8   11 1   
    11    8   16 1   
    12    9   10 2   
    13    9   19 1   
    14   11   12 1   
    15   11   17 1   
    16   11   18 1   
    17   12   13 1   
    18   12   14 1   
    19   19   20 1   
    20   19   24 1   
    21   20   21 1   
    22   20   23 1   
    23   20   25 1   
    24   21   22 2   
    25   21   29 1   
    26   23   26 1   
    27   23   27 1   
    28   23   28 1   
    29   29   30 1   
    30   29   37 1   
    31   30   31 1   
    32   30   33 1   
    33   30   38 1   
    34   31   32 2   
    35   31   41 1   
    36   33   34 1   
    37   33   39 1   
    38   33   40 1   
    39   34   35 1   
    40   34   36 1   
    41   41   42 1   
    42   41   45 1   
    43   42   43 1   
    44   42   46 1   
    45   42   47 1   
    46   43   44 2   
    47   43   48 1   
    48   48   49 1   
    49   48   56 1   
    50   49   50 1   
    51   49   52 1   
    52   49   57 1   
    53   50   51 2   
    54   50   62 1   
    55   52   53 1   
    56   52   58 1   
    57   52   59 1   
    58   53   54 1   
    59   53   55 2   
    60   54   60 1   
    61   54   61 1   
    62   62   63 1   
    63   62   66 1   
    64   63   64 1   
    65   63   67 1   
    66   63   68 1   
    67   64   65 2   
    68   64   69 1   
    69   69   70 1   
    70   69   76 1   
    71   70   71 1   
    72   70   73 1   
    73   70   77 1   
    74   71   72 2   
    75   71   83 1   
    76   73   74 1   
    77   73   75 1   
    78   73   78 1   
    79   74   80 1   
    80   74   81 1   
    81   74   82 1   
    82   75   79 1   
    83   83   84 1   
    84   83   91 1   
    85   84   85 1   
    86   84   87 1   
    87   84   92 1   
    88   85   86 2   
    89   85  102 1   
    90   87   88 1   
    91   87   89 1   
    92   87   93 1   
    93   88   90 1   
    94   88   94 1   
    95   88   95 1   
    96   89   96 1   
    97   89   97 1   
    98   89   98 1   
    99   90   99 1   
   100   90  100 1   
   101   90  101 1   
   102  102  103 1   
   103  102  110 1   
   104  103  104 1   
   105  103  106 1   
   106  103  111 1   
   107  104  105 2   
   108  104  114 1   
   109  106  107 1   
   110  106  112 1   
   111  106  113 1   
   112  107  108 1   
   113  107  109 1   
   114  114  115 1   
   115  114  125 1   
   116  115  116 1   
   117  115  118 1   
   118  115  126 1   
   119  116  117 2   
   120  116  134 1   
   121  118  119 1   
   122  118  127 1   
   123  118  128 1   
   124  119  120 ar  
   125  119  121 ar  
   126  120  122 ar  
   127  120  129 1   
   128  121  123 ar  
   129  121  130 1   
   130  122  124 ar  
   131  122  131 1   
   132  123  124 ar  
   133  123  132 1   
   134  124  133 1   
   135  134  135 1   
   136  134  140 1   
   137  135  136 1   
   138  135  138 1   
   139  135  141 1   
   140  136  137 2   
   141  136  148 1   
   142  138  139 1   
   143  138  142 1   
   144  138  143 1   
   145  139  140 1   
   146  139  144 1   
   147  139  145 1   
   148  140  146 1   
   149  140  147 1   
   150  148  149 1   
   151  148  157 1   
   152  149  150 1   
   153  149  152 1   
   154  149  158 1   
   155  150  151 2   
   156  150  163 1   
   157  152  153 1   
   158  152  159 1   
   159  152  160 1   
   160  153  154 1   
   161  153  161 1   
   162  153  162 1   
   163  154  155 1   
   164  154  156 1   
   165  163  164 1   
   166  163  168 1   
   167  164  165 1   
   168  164  166 1   
   169  164  167 1   
   170  170  171 1   
   171  170  172 1   
   172  173  174 1   
   173  173  175 1   
   174  176  177 1   
   175  176  178 1   
   176  179  180 1   
   177  179  181 1   
@<TRIPOS>SUBSTRUCTURE
     1 MOL         1 TEMP              0 ****  ****    0 ROOT
