@<TRIPOS>MOLECULE
MOL
  189   185     1     0     0
SMALL
resp


@<TRIPOS>ATOM
      1 C1         -1.1960    7.8930    1.4670 c3        1 MOL     -0.388428
      2 C2         -1.1620    6.3200    1.2670 c         1 MOL      0.678722
      3 O1         -0.6980    5.6240    2.1890 o         1 MOL     -0.581109
      4 H1         -1.1820    8.1240    2.5320 hc        1 MOL      0.094469
      5 H2         -0.3240    8.3390    0.9880 hc        1 MOL      0.094469
      6 H3         -2.1040    8.2970    1.0190 hc        1 MOL      0.094469
      7 N1         -1.8320    5.8710    0.1590 n         1 MOL     -0.485605
      8 C3         -1.9820    4.4730   -0.2430 c3        1 MOL      0.222462
      9 C4         -0.6690    3.8670   -0.7720 c         1 MOL      0.589808
     10 O2         -0.7590    2.8820   -1.4570 o         1 MOL     -0.518256
     11 C5         -3.1460    4.2560   -1.2020 c3        1 MOL      0.060302
     12 C6         -3.1070    5.2450   -2.3980 c         1 MOL      0.604159
     13 O3         -3.2100    6.4510   -2.1750 o         1 MOL     -0.662085
     14 O4         -2.7980    4.7570   -3.4930 o         1 MOL     -0.662085
     15 H4         -2.4160    6.5090   -0.3470 hn        1 MOL      0.242362
     16 H5         -2.3090    3.8400    0.5850 h1        1 MOL     -0.039359
     17 H6         -4.0680    4.5120   -0.6770 hc        1 MOL     -0.051541
     18 H7         -3.2080    3.2790   -1.6850 hc        1 MOL     -0.051541
     19 N2          0.4770    4.4530   -0.4210 n         1 MOL     -0.730675
     20 C7          1.8070    3.9200   -0.8050 c3        1 MOL      0.779092
     21 C8          2.5200    3.4640    0.4340 c         1 MOL      0.221169
     22 O5          2.4840    4.3300    1.3410 o         1 MOL     -0.523404
     23 C9          2.6130    4.9370   -1.5910 c3        1 MOL     -0.483640
     24 C10         4.0540    4.5800   -2.0300 c3        1 MOL      0.173797
     25 C11         4.8560    5.8350   -2.3860 c3        1 MOL     -0.195904
     26 C12         6.2820    5.2040   -2.6940 c3        1 MOL      0.107716
     27 N3          7.1820    6.2080   -3.2770 n4        1 MOL     -0.561224
     28 H8          0.4410    5.3370    0.0810 hn        1 MOL      0.285136
     29 H9          1.6330    3.0610   -1.4560 h1        1 MOL     -0.073269
     30 H10         2.5810    5.8490   -1.0000 hc        1 MOL      0.112782
     31 H11         2.0900    5.1210   -2.5270 hc        1 MOL      0.112782
     32 H12         3.9340    3.8890   -2.8670 hc        1 MOL      0.029556
     33 H13         4.5250    3.9960   -1.2390 hc        1 MOL      0.029556
     34 H14         4.9550    6.5050   -1.5270 hc        1 MOL      0.077749
     35 H15         4.4360    6.3100   -3.2750 hc        1 MOL      0.077749
     36 H16         6.1330    4.3800   -3.3770 hx        1 MOL      0.085150
     37 H17         6.6650    4.9550   -1.7110 hx        1 MOL      0.085150
     38 H18         6.6500    6.6060   -4.0340 hn        1 MOL      0.378767
     39 H19         7.5270    6.8840   -2.6110 hn        1 MOL      0.378767
     40 H20         7.9900    5.7840   -3.6950 hn        1 MOL      0.378767
     41 N4          3.0310    2.2590    0.6390 n         1 MOL     -0.374123
     42 C13         3.0720    1.0000   -0.1230 c3        1 MOL      0.276334
     43 C14         3.4800    1.2020   -1.6370 c         1 MOL      0.025410
     44 O6          2.7110    1.4360   -2.5720 o         1 MOL     -0.445844
     45 C15         1.7220    0.3180   -0.0170 c3        1 MOL      0.074145
     46 C16         1.1640    0.2480    1.4040 c         1 MOL      0.714437
     47 O7          1.8490    0.2320    2.4410 o         1 MOL     -0.776943
     48 O8         -0.0160   -0.0730    1.4640 o         1 MOL     -0.776943
     49 H21         3.4940    2.2060    1.5320 hn        1 MOL      0.307094
     50 H22         3.8120    0.3600    0.3580 h1        1 MOL      0.010457
     51 H23         1.9100   -0.6700   -0.4100 hc        1 MOL      0.008970
     52 H24         0.9260    0.8560   -0.5360 hc        1 MOL      0.008970
     53 N5          4.7890    1.2490   -1.9220 n         1 MOL     -0.204656
     54 C17         5.9560    1.1610   -0.9690 c3        1 MOL     -0.102449
     55 C18         7.2820    1.2780   -1.7030 c         1 MOL      0.592331
     56 O9          7.2100    1.6410   -2.8740 o         1 MOL     -0.623459
     57 H25         4.9940    1.4100   -2.9050 hn        1 MOL      0.285908
     58 H26         6.0140    0.1780   -0.5130 h1        1 MOL      0.052698
     59 H27         5.8650    2.0530   -0.3520 h1        1 MOL      0.052698
     60 N6          8.4840    1.0850   -1.1860 n         1 MOL     -0.544887
     61 C19         8.7280    0.7380    0.2220 c3        1 MOL      0.202423
     62 C20         8.4490   -0.7620    0.5900 c         1 MOL      0.478296
     63 O10         9.1460   -1.6800    0.2320 o         1 MOL     -0.510747
     64 C21        10.1640    1.1020    0.4710 c3        1 MOL     -0.382333
     65 C22        10.7380    0.8070    1.8450 c         1 MOL      0.795099
     66 O11        11.9530    1.0720    2.0140 o         1 MOL     -0.686839
     67 O12        10.0170    0.5990    2.7980 o         1 MOL     -0.686839
     68 H28         9.2460    1.1830   -1.8430 hn        1 MOL      0.345105
     69 H29         8.0920    1.3810    0.8200 h1        1 MOL      0.027932
     70 H30        10.2280    2.1560    0.1960 hc        1 MOL      0.080244
     71 H31        10.7300    0.5910   -0.3100 hc        1 MOL      0.080244
     72 N7          7.4160   -0.9840    1.3480 n         1 MOL     -0.319238
     73 C23         6.8580   -2.2720    1.7580 c3        1 MOL      0.010693
     74 C24         5.9220   -2.9200    0.7020 c         1 MOL      0.594264
     75 O13         5.3830   -2.2450   -0.1360 o         1 MOL     -0.495347
     76 H32         6.8910   -0.1500    1.5720 hn        1 MOL      0.210609
     77 H33         6.1950   -2.2340    2.6260 h1        1 MOL      0.066458
     78 H34         7.6080   -3.0470    1.9400 h1        1 MOL      0.066458
     79 N8          5.6560   -4.2620    0.8850 n         1 MOL     -0.538510
     80 C25         4.7680   -5.0640    0.0340 c3        1 MOL     -0.004130
     81 C26         3.3160   -4.5250    0.0880 c         1 MOL      0.535534
     82 O14         2.8440   -4.1010    1.1760 o         1 MOL     -0.467728
     83 C27         4.8680   -6.5720    0.4800 c3        1 MOL      0.320387
     84 C28         3.8350   -7.5490   -0.1200 c3        1 MOL     -0.521095
     85 O15         4.8220   -6.6930    1.8600 oh        1 MOL     -0.588386
     86 H35         6.0530   -4.6880    1.7050 hn        1 MOL      0.299251
     87 H36         5.0930   -5.0360   -1.0050 h1        1 MOL      0.065730
     88 H37         5.8780   -6.9350    0.2990 h1        1 MOL      0.009432
     89 H38         5.1470   -7.5820    2.0240 ho        1 MOL      0.397945
     90 H39         2.8070   -7.3350    0.1810 hc        1 MOL      0.140935
     91 H40         3.9330   -7.6420   -1.2000 hc        1 MOL      0.140935
     92 H41         4.0430   -8.5090    0.3460 hc        1 MOL      0.140935
     93 N9          2.5710   -4.6640   -0.9880 n         1 MOL     -0.397319
     94 C29         1.2350   -4.0780   -1.3080 c3        1 MOL     -0.066915
     95 C30         0.0700   -4.9940   -0.9490 c         1 MOL      0.581142
     96 O16         0.2180   -6.2280   -0.9770 o         1 MOL     -0.560557
     97 C31         1.1580   -3.7170   -2.8470 c3        1 MOL      0.112701
     98 C32         2.3660   -3.2180   -3.5550 c3        1 MOL     -0.015890
     99 C33        -0.0130   -2.6960   -3.2380 c3        1 MOL     -0.355576
    100 C34         2.9600   -1.9220   -3.0140 c3        1 MOL      0.116050
    101 H42         2.8770   -5.2630   -1.7310 hn        1 MOL      0.283406
    102 H43         1.0850   -3.1830   -0.7100 h1        1 MOL      0.075420
    103 H44         0.9290   -4.6310   -3.3910 hc        1 MOL      0.003039
    104 H45         2.1520   -2.9950   -4.6050 hc        1 MOL     -0.014060
    105 H46         3.0750   -4.0420   -3.5720 hc        1 MOL     -0.014060
    106 H47        -0.9460   -2.8330   -2.7000 hc        1 MOL      0.099384
    107 H48         0.3080   -1.6730   -3.0250 hc        1 MOL      0.099384
    108 H49        -0.1620   -2.7710   -4.3180 hc        1 MOL      0.099384
    109 H50         3.5770   -2.1830   -2.1490 hc        1 MOL     -0.006255
    110 H51         3.6480   -1.6180   -3.8060 hc        1 MOL     -0.006255
    111 H52         2.1560   -1.2110   -2.7990 hc        1 MOL     -0.006255
    112 N10        -1.0830   -4.4340   -0.7130 n         1 MOL     -0.355944
    113 C35        -2.3250   -5.1320   -0.4480 c3        1 MOL     -0.196598
    114 C36        -3.5720   -4.4480   -0.9860 c         1 MOL      0.550016
    115 O17        -4.4860   -5.1170   -1.4660 o         1 MOL     -0.540140
    116 C37        -2.5060   -5.3040    1.1130 c3        1 MOL      0.109244
    117 C38        -2.5060   -3.9920    1.9870 c3        1 MOL     -0.439655
    118 O18        -1.4390   -6.0810    1.6120 oh        1 MOL     -0.511415
    119 H53        -1.1610   -3.4330   -0.8290 hn        1 MOL      0.258428
    120 H54        -2.1820   -6.0940   -0.9190 h1        1 MOL      0.157443
    121 H55        -3.4840   -5.7640    1.3060 h1        1 MOL      0.092612
    122 H56        -1.4640   -6.8980    1.1020 ho        1 MOL      0.382248
    123 H57        -1.4700   -3.7330    2.2290 hc        1 MOL      0.154183
    124 H58        -3.2140   -3.2010    1.7750 hc        1 MOL      0.154183
    125 H59        -2.7510   -4.3630    2.9850 hc        1 MOL      0.154183
    126 N11        -3.5810   -3.0860   -0.9940 n         1 MOL     -0.295381
    127 C39        -4.7340   -2.2800   -1.3820 c3        1 MOL      0.028016
    128 C40        -5.7430   -2.3730   -0.3030 c         1 MOL      0.412654
    129 O19        -5.5410   -2.9220    0.7560 o         1 MOL     -0.468894
    130 C41        -5.3260   -2.5760   -2.8100 c3        1 MOL      0.300835
    131 C42        -4.1340   -2.4310   -3.7890 c3        1 MOL     -0.251743
    132 O20        -6.3150   -1.6820   -3.1630 oh        1 MOL     -0.647767
    133 H60        -2.7080   -2.6180   -0.7900 hn        1 MOL      0.282447
    134 H61        -4.5060   -1.2160   -1.3550 h1        1 MOL      0.046829
    135 H62        -5.6390   -3.6240   -2.8680 h1        1 MOL      0.062510
    136 H63        -5.9090   -1.0470   -3.7490 ho        1 MOL      0.421502
    137 H64        -4.5760   -2.2900   -4.7820 hc        1 MOL      0.059752
    138 H65        -3.5380   -1.5420   -3.5830 hc        1 MOL      0.059752
    139 H66        -3.5440   -3.3420   -3.8230 hc        1 MOL      0.059752
    140 N12        -6.8730   -1.7120   -0.3680 n         1 MOL     -0.285862
    141 C43        -7.9510   -1.4280    0.6590 c3        1 MOL     -0.012936
    142 C44        -7.5670   -0.2640    1.5970 c         1 MOL      0.472926
    143 O21        -8.0120   -0.1830    2.7060 o         1 MOL     -0.534432
    144 C45        -9.1890   -1.0700   -0.0080 c3        1 MOL     -0.202742
    145 C46        -9.1480    0.0340   -1.1500 c3        1 MOL      0.161460
    146 C47       -10.5020    0.3950   -1.6200 c3        1 MOL      0.118306
    147 C48       -11.3700   -0.6430   -2.3190 c3        1 MOL      0.002015
    148 N13       -10.6630   -1.2310   -3.5270 n4        1 MOL     -0.266766
    149 H67        -7.1050   -1.2810   -1.2470 hn        1 MOL      0.167914
    150 H68        -8.0640   -2.3060    1.2920 h1        1 MOL      0.124141
    151 H69        -9.9550   -0.7790    0.7080 hc        1 MOL      0.068424
    152 H70        -9.6910   -1.9370   -0.4360 hc        1 MOL      0.068424
    153 H71        -8.4700   -0.2970   -1.9270 hc        1 MOL     -0.053384
    154 H72        -8.7430    0.9210   -0.6800 hc        1 MOL     -0.053384
    155 H73       -10.4050    1.2480   -2.2970 hc        1 MOL      0.000610
    156 H74       -11.1120    0.7270   -0.7720 hc        1 MOL      0.000610
    157 H75       -12.2770   -0.1550   -2.6470 hx        1 MOL      0.066762
    158 H76       -11.6780   -1.3940   -1.5940 hx        1 MOL      0.066762
    159 H77        -9.8860   -0.6970   -3.8920 hn        1 MOL      0.245432
    160 H78       -10.2700   -2.1400   -3.3340 hn        1 MOL      0.245432
    161 H79       -11.4010   -1.2950   -4.2240 hn        1 MOL      0.245432
    162 N14        -6.6700    0.6160    1.1050 n         1 MOL     -0.260743
    163 C49        -5.8550    1.5570    1.8990 c3        1 MOL     -0.097100
    164 C50        -6.6600    2.7940    2.4130 c         1 MOL      0.294816
    165 O22        -6.1460    3.9590    2.3270 o         1 MOL     -0.464589
    166 C51        -4.6680    1.9550    0.9570 c3        1 MOL      0.191427
    167 C52        -3.5790    0.9290    0.9300 c3        1 MOL      0.272948
    168 C53        -2.9460    0.6120    2.2370 c         1 MOL      0.894835
    169 O23        -2.5350    1.5280    3.0150 o         1 MOL     -0.925729
    170 O24        -2.9130   -0.5780    2.6070 o         1 MOL     -0.925729
    171 H80        -6.5060    0.4940    0.1250 hn        1 MOL      0.187739
    172 H81        -5.5340    0.9680    2.7650 h1        1 MOL      0.175322
    173 H82        -4.2280    2.9080    1.2710 hc        1 MOL     -0.005894
    174 H83        -4.9590    2.2150   -0.0600 hc        1 MOL     -0.005894
    175 H84        -2.7810    1.3340    0.3060 hc        1 MOL     -0.128668
    176 H85        -3.8740   -0.0310    0.5080 hc        1 MOL     -0.128668
    177 N15        -7.9080    2.6350    2.8260 n         1 MOL     -0.208293
    178 C54        -8.7530    3.7850    2.9700 c3        1 MOL     -0.023868
    179 H86        -9.0050    3.9200    4.0220 h1        1 MOL      0.044069
    180 H87        -8.2290    4.6690    2.6070 h1        1 MOL      0.044069
    181 H88        -9.6670    3.6400    2.3940 h1        1 MOL      0.044069
    182 H89        -8.2170    1.7360    3.1530 hn        1 MOL      0.236306
    183 Ca1        -0.4250    0.2430    3.9880 Ca        1 MOL      1.751714
    184 O25        -0.2280   -2.4390    4.0280 oh        1 MOL     -0.853203
    185 H90        -0.0820   -3.1880    3.4610 ho        1 MOL      0.419664
    186 H91        -0.8460   -2.7510    4.6910 ho        1 MOL      0.419664
    187 O26         1.1550    2.9030    4.1120 oh        1 MOL     -0.853203
    188 H92         0.8140    3.5810    4.6980 ho        1 MOL      0.419664
    189 H93         1.0500    3.2670    3.2400 ho        1 MOL      0.419664
@<TRIPOS>BOND
     1    1    2 1   
     2    1    4 1   
     3    1    5 1   
     4    1    6 1   
     5    2    3 2   
     6    2    7 1   
     7    7    8 1   
     8    7   15 1   
     9    8    9 1   
    10    8   11 1   
    11    8   16 1   
    12    9   10 2   
    13    9   19 1   
    14   11   12 1   
    15   11   17 1   
    16   11   18 1   
    17   12   13 1   
    18   12   14 1   
    19   19   20 1   
    20   19   28 1   
    21   20   21 1   
    22   20   23 1   
    23   20   29 1   
    24   21   22 2   
    25   21   41 1   
    26   23   24 1   
    27   23   30 1   
    28   23   31 1   
    29   24   25 1   
    30   24   32 1   
    31   24   33 1   
    32   25   26 1   
    33   25   34 1   
    34   25   35 1   
    35   26   27 1   
    36   26   36 1   
    37   26   37 1   
    38   27   38 1   
    39   27   39 1   
    40   27   40 1   
    41   41   42 1   
    42   41   49 1   
    43   42   43 1   
    44   42   45 1   
    45   42   50 1   
    46   43   44 2   
    47   43   53 1   
    48   45   46 1   
    49   45   51 1   
    50   45   52 1   
    51   46   47 1   
    52   46   48 1   
    53   53   54 1   
    54   53   57 1   
    55   54   55 1   
    56   54   58 1   
    57   54   59 1   
    58   55   56 2   
    59   55   60 1   
    60   60   61 1   
    61   60   68 1   
    62   61   62 1   
    63   61   64 1   
    64   61   69 1   
    65   62   63 2   
    66   62   72 1   
    67   64   65 1   
    68   64   70 1   
    69   64   71 1   
    70   65   66 1   
    71   65   67 1   
    72   72   73 1   
    73   72   76 1   
    74   73   74 1   
    75   73   77 1   
    76   73   78 1   
    77   74   75 2   
    78   74   79 1   
    79   79   80 1   
    80   79   86 1   
    81   80   81 1   
    82   80   83 1   
    83   80   87 1   
    84   81   82 2   
    85   81   93 1   
    86   83   84 1   
    87   83   85 1   
    88   83   88 1   
    89   84   90 1   
    90   84   91 1   
    91   84   92 1   
    92   85   89 1   
    93   93   94 1   
    94   93  101 1   
    95   94   95 1   
    96   94   97 1   
    97   94  102 1   
    98   95   96 2   
    99   95  112 1   
   100   97   98 1   
   101   97   99 1   
   102   97  103 1   
   103   98  100 1   
   104   98  104 1   
   105   98  105 1   
   106   99  106 1   
   107   99  107 1   
   108   99  108 1   
   109  100  109 1   
   110  100  110 1   
   111  100  111 1   
   112  112  113 1   
   113  112  119 1   
   114  113  114 1   
   115  113  116 1   
   116  113  120 1   
   117  114  115 2   
   118  114  126 1   
   119  116  117 1   
   120  116  118 1   
   121  116  121 1   
   122  117  123 1   
   123  117  124 1   
   124  117  125 1   
   125  118  122 1   
   126  126  127 1   
   127  126  133 1   
   128  127  128 1   
   129  127  130 1   
   130  127  134 1   
   131  128  129 2   
   132  128  140 1   
   133  130  131 1   
   134  130  132 1   
   135  130  135 1   
   136  131  137 1   
   137  131  138 1   
   138  131  139 1   
   139  132  136 1   
   140  140  141 1   
   141  140  149 1   
   142  141  142 1   
   143  141  144 1   
   144  141  150 1   
   145  142  143 2   
   146  142  162 1   
   147  144  145 1   
   148  144  151 1   
   149  144  152 1   
   150  145  146 1   
   151  145  153 1   
   152  145  154 1   
   153  146  147 1   
   154  146  155 1   
   155  146  156 1   
   156  147  148 1   
   157  147  157 1   
   158  147  158 1   
   159  148  159 1   
   160  148  160 1   
   161  148  161 1   
   162  162  163 1   
   163  162  171 1   
   164  163  164 1   
   165  163  166 1   
   166  163  172 1   
   167  164  165 2   
   168  164  177 1   
   169  166  167 1   
   170  166  173 1   
   171  166  174 1   
   172  167  168 1   
   173  167  175 1   
   174  167  176 1   
   175  168  169 1   
   176  168  170 1   
   177  177  178 1   
   178  177  182 1   
   179  178  179 1   
   180  178  180 1   
   181  178  181 1   
   182  184  185 1   
   183  184  186 1   
   184  187  188 1   
   185  187  189 1   
@<TRIPOS>SUBSTRUCTURE
     1 MOL         1 TEMP              0 ****  ****    0 ROOT
