@<TRIPOS>MOLECULE
MOL
  181   177     1     0     0
SMALL
resp


@<TRIPOS>ATOM
      1 C1          1.8390    6.2380   -1.2150 c3        1 MOL     -0.370273
      2 C2          3.2890    6.2640   -0.5980 c         1 MOL      0.633650
      3 O1          3.4850    6.7910    0.4960 o         1 MOL     -0.552627
      4 H1          1.1810    6.8730   -0.6220 hc        1 MOL      0.097818
      5 H2          1.8730    6.6080   -2.2390 hc        1 MOL      0.097818
      6 H3          1.4590    5.2160   -1.2100 hc        1 MOL      0.097818
      7 N1          4.3330    5.7300   -1.3020 n         1 MOL     -0.589267
      8 C3          5.7360    5.9430   -0.9070 c3        1 MOL      0.337329
      9 C4          6.2850    4.7760   -0.0380 c         1 MOL      0.362127
     10 O2          7.3050    4.0740   -0.3150 o         1 MOL     -0.462497
     11 C5          6.6830    6.1800   -2.1250 c3        1 MOL     -0.317399
     12 C6          8.1850    6.5390   -1.8260 c         1 MOL      0.789303
     13 O3          8.4280    7.3790   -0.9340 o         1 MOL     -0.743894
     14 O4          9.0320    6.0060   -2.5200 o         1 MOL     -0.743894
     15 H4          4.1200    5.3260   -2.1960 hn        1 MOL      0.298434
     16 H5          5.7660    6.8330   -0.2860 h1        1 MOL      0.020122
     17 H6          6.3160    7.0300   -2.7030 hc        1 MOL      0.029751
     18 H7          6.6050    5.3470   -2.8330 hc        1 MOL      0.029751
     19 N2          5.5590    4.5410    1.0520 n         1 MOL     -0.515451
     20 C7          5.6870    3.3740    1.9840 c3        1 MOL      0.622580
     21 C8          4.3050    2.7390    2.3020 c         1 MOL      0.283527
     22 O5          3.3280    3.3550    2.0010 o         1 MOL     -0.479119
     23 C9          6.3850    3.8900    3.2660 c3        1 MOL     -0.350471
     24 H8          4.7230    5.0980    1.1260 hn        1 MOL      0.243489
     25 H9          6.3930    2.6260    1.6480 h1        1 MOL     -0.090958
     26 H10         5.7010    4.5920    3.7380 hc        1 MOL      0.077327
     27 H11         6.6730    3.0460    3.8900 hc        1 MOL      0.077327
     28 H12         7.3160    4.4400    3.0870 hc        1 MOL      0.077327
     29 N3          4.1420    1.5030    2.7600 n         1 MOL     -0.314522
     30 C10         5.0830    0.4950    2.8790 c3        1 MOL     -0.264359
     31 C11         5.4670   -0.2380    1.5760 c         1 MOL      0.683054
     32 O6          4.6820   -0.3140    0.6450 o         1 MOL     -0.553945
     33 C12         4.7700   -0.5630    3.9350 c3        1 MOL     -0.145368
     34 C13         3.5960   -1.4560    3.6150 c         1 MOL      0.757963
     35 O7          3.7960   -2.6670    3.5330 o         1 MOL     -0.738047
     36 O8          2.4920   -0.9220    3.5100 o         1 MOL     -0.738047
     37 H13         3.1900    1.2720    3.0180 hn        1 MOL      0.325033
     38 H14         5.9780    1.0770    3.1060 h1        1 MOL      0.095525
     39 H15         4.7080   -0.1640    4.9550 hc        1 MOL      0.052553
     40 H16         5.6640   -1.1870    3.9490 hc        1 MOL      0.052553
     41 N4          6.6220   -0.8250    1.5480 n         1 MOL     -0.377968
     42 C14         7.0710   -1.8350    0.6300 c3        1 MOL      0.006424
     43 C15         7.4010   -1.2530   -0.7010 c         1 MOL      0.517320
     44 O9          8.0240   -0.2160   -0.7310 o         1 MOL     -0.509033
     45 H17         7.2190   -0.6810    2.3470 hn        1 MOL      0.282452
     46 H18         6.3040   -2.5950    0.4860 h1        1 MOL      0.048926
     47 H19         7.9190   -2.3190    1.1090 h1        1 MOL      0.048926
     48 N5          7.1800   -1.9380   -1.7970 n         1 MOL     -0.449548
     49 C16         6.4370   -3.2180   -1.9970 c3        1 MOL      0.068387
     50 C17         5.2370   -3.0010   -2.8960 c         1 MOL      0.592003
     51 O10         5.1570   -2.0280   -3.6680 o         1 MOL     -0.524907
     52 C18         7.3160   -4.3630   -2.5820 c3        1 MOL     -0.344894
     53 C19         8.5700   -4.7420   -1.7640 c         1 MOL      0.773108
     54 N6          9.4570   -5.5580   -2.2820 n         1 MOL     -0.836458
     55 O11         8.7340   -4.4210   -0.6220 o         1 MOL     -0.548056
     56 H20         7.6150   -1.5090   -2.5950 hn        1 MOL      0.317898
     57 H21         6.0470   -3.6080   -1.0600 h1        1 MOL      0.084511
     58 H22         7.4630   -4.0440   -3.6150 hc        1 MOL      0.076384
     59 H23         6.6570   -5.2270   -2.6770 hc        1 MOL      0.076384
     60 H24         9.3500   -5.8290   -3.2490 hn        1 MOL      0.372614
     61 H25        10.2710   -5.7960   -1.7290 hn        1 MOL      0.372614
     62 N7          4.1670   -3.7200   -2.6130 n         1 MOL     -0.420052
     63 C20         2.9390   -3.6490   -3.4290 c3        1 MOL     -0.206801
     64 C21         1.5900   -4.1030   -2.8250 c         1 MOL      0.504157
     65 O12         0.5990   -4.2260   -3.6090 o         1 MOL     -0.562334
     66 H26         4.2200   -4.4440   -1.9130 hn        1 MOL      0.252376
     67 H27         3.1990   -4.2170   -4.3130 h1        1 MOL      0.155237
     68 H28         2.7450   -2.6330   -3.7730 h1        1 MOL      0.155237
     69 N8          1.5310   -4.4160   -1.5180 n         1 MOL     -0.285404
     70 C22         0.3840   -5.0580   -0.9260 c3        1 MOL      0.090463
     71 C23        -0.7190   -3.9410   -0.5100 c         1 MOL      0.680832
     72 O13        -0.3730   -2.9290    0.1030 o         1 MOL     -0.640402
     73 C24         0.6820   -6.0010    0.2240 c3        1 MOL      0.188305
     74 C25        -0.5150   -6.3670    1.1680 c3        1 MOL     -0.297952
     75 O14         1.0530   -7.2860   -0.2640 oh        1 MOL     -0.667792
     76 H29         2.3570   -4.3390   -0.9500 hn        1 MOL      0.222867
     77 H30        -0.1370   -5.5480   -1.7610 h1        1 MOL      0.077239
     78 H31         1.4060   -5.5150    0.8730 h1        1 MOL      0.028441
     79 H32         1.2800   -7.8540    0.4770 ho        1 MOL      0.419633
     80 H33        -0.7120   -5.4880    1.8010 hc        1 MOL      0.093460
     81 H34        -1.4040   -6.6410    0.6110 hc        1 MOL      0.093460
     82 H35        -0.1840   -7.1860    1.7930 hc        1 MOL      0.093460
     83 N9         -1.9390   -4.0480   -1.0600 n         1 MOL     -0.503338
     84 C26        -2.8880   -2.9640   -1.0450 c3        1 MOL      0.011856
     85 C27        -3.7570   -3.1240    0.2130 c         1 MOL      0.349660
     86 O15        -4.4590   -4.1150    0.3530 o         1 MOL     -0.576693
     87 C28        -3.8110   -3.0050   -2.2780 c3        1 MOL      0.327980
     88 C29        -5.0330   -2.0710   -2.2170 c3        1 MOL      0.050158
     89 C30        -3.0820   -2.4720   -3.5400 c3        1 MOL     -0.392854
     90 C31        -6.0780   -2.2380   -3.2330 c3        1 MOL     -0.129157
     91 H36        -2.1070   -4.8150   -1.6920 hn        1 MOL      0.281568
     92 H37        -2.3580   -2.0150   -1.0300 h1        1 MOL      0.108308
     93 H38        -4.0690   -4.0540   -2.3860 hc        1 MOL     -0.022214
     94 H39        -4.6690   -1.0480   -2.2340 hc        1 MOL     -0.017739
     95 H40        -5.5420   -2.2800   -1.2720 hc        1 MOL     -0.017739
     96 H41        -2.8380   -1.4140   -3.4730 hc        1 MOL      0.085056
     97 H42        -2.1390   -3.0090   -3.6430 hc        1 MOL      0.085056
     98 H43        -3.6980   -2.6200   -4.4300 hc        1 MOL      0.085056
     99 H44        -5.6780   -1.9170   -4.1970 hc        1 MOL      0.010256
    100 H45        -6.3420   -3.2910   -3.3930 hc        1 MOL      0.010256
    101 H46        -6.9360   -1.5860   -3.0700 hc        1 MOL      0.010256
    102 N10        -3.7880   -2.1270    1.0960 n         1 MOL      0.083810
    103 C32        -4.6740   -2.1770    2.2620 c3        1 MOL      0.013163
    104 C33        -5.9780   -1.4370    2.0770 c         1 MOL      0.263277
    105 O16        -6.9090   -1.5420    2.8490 o         1 MOL     -0.522356
    106 C34        -3.9090   -1.6280    3.4570 c3        1 MOL      0.055388
    107 C35        -2.6160   -2.4330    3.8710 c         1 MOL      0.530481
    108 O17        -1.5730   -1.9900    3.2940 o         1 MOL     -0.648102
    109 O18        -2.8130   -3.3690    4.6920 o         1 MOL     -0.648102
    110 H47        -3.1380   -1.3710    0.9400 hn        1 MOL     -0.079219
    111 H48        -4.9250   -3.1660    2.6570 h1        1 MOL      0.098532
    112 H49        -4.4960   -1.4990    4.3660 hc        1 MOL     -0.016095
    113 H50        -3.6420   -0.6280    3.1410 hc        1 MOL     -0.016095
    114 N11        -5.9160   -0.5790    1.0720 n         1 MOL     -0.071913
    115 C36        -6.9760    0.4170    0.7790 c3        1 MOL      0.496700
    116 C37        -6.5200    1.8310    0.5330 c         1 MOL      0.118967
    117 O19        -6.9580    2.4280   -0.4400 o         1 MOL     -0.455381
    118 C38        -7.8200   -0.1430   -0.3990 c3        1 MOL     -0.378568
    119 C39        -9.2370    0.3640   -0.6550 ca        1 MOL      0.207260
    120 C40        -9.9020   -0.2100   -1.7340 ca        1 MOL     -0.198581
    121 C41        -9.8930    1.2910    0.1150 ca        1 MOL     -0.198581
    122 C42       -11.1800    0.1690   -2.0760 ca        1 MOL     -0.071355
    123 C43       -11.2310    1.6590   -0.2140 ca        1 MOL     -0.071355
    124 C44       -11.8440    1.0580   -1.2920 ca        1 MOL     -0.180963
    125 H51        -4.9930   -0.3920    0.6950 hn        1 MOL     -0.085671
    126 H52        -7.6360    0.3320    1.6410 h1        1 MOL     -0.046807
    127 H53        -7.9150   -1.2060   -0.1650 hc        1 MOL      0.116446
    128 H54        -7.2200   -0.1170   -1.3120 hc        1 MOL      0.116446
    129 H55        -9.4010   -0.9730   -2.3150 ha        1 MOL      0.120711
    130 H56        -9.4260    1.8920    0.8710 ha        1 MOL      0.120711
    131 H57       -11.7000   -0.3520   -2.8700 ha        1 MOL      0.091670
    132 H58       -11.6900    2.4560    0.3640 ha        1 MOL      0.091670
    133 H59       -12.8030    1.4400   -1.6200 ha        1 MOL      0.099496
    134 N12        -5.7250    2.5490    1.4200 n         1 MOL      0.059977
    135 C45        -5.1890    3.8440    1.1720 c3        1 MOL     -0.006584
    136 C46        -4.4230    4.0510   -0.1520 c         1 MOL      0.204997
    137 O20        -4.2680    5.2640   -0.5030 o         1 MOL     -0.472178
    138 C47        -4.4490    4.1890    2.4660 c3        1 MOL     -0.137823
    139 C48        -5.0870    3.3120    3.5780 c3        1 MOL     -0.018239
    140 C49        -5.3430    2.1290    2.7650 c3        1 MOL     -0.113705
    141 H60        -6.0480    4.5070    1.1020 h1        1 MOL      0.087011
    142 H61        -3.3840    3.9880    2.3910 hc        1 MOL      0.062413
    143 H62        -4.5980    5.2510    2.6820 hc        1 MOL      0.062413
    144 H63        -4.5420    3.1220    4.4990 hc        1 MOL      0.029762
    145 H64        -6.0720    3.7650    3.6860 hc        1 MOL      0.029762
    146 H65        -4.4070    1.5580    2.7730 h1        1 MOL      0.069114
    147 H66        -6.1670    1.6310    3.2750 h1        1 MOL      0.069114
    148 N13        -3.9090    2.9710   -0.8000 n         1 MOL      0.165989
    149 C50        -3.3030    3.0390   -2.1840 c3        1 MOL     -0.491105
    150 C51        -4.4020    3.4280   -3.2420 c         1 MOL      0.580044
    151 O21        -4.2390    4.4040   -3.9420 o         1 MOL     -0.537037
    152 C52        -2.7350    1.6110   -2.5110 c3        1 MOL      0.400758
    153 C53        -1.6870    1.0240   -1.5660 c3        1 MOL     -0.592983
    154 C54        -2.2340    0.5220   -0.2310 c         1 MOL      0.541990
    155 O22        -1.4150    0.0030    0.5520 o         1 MOL     -0.478608
    156 O23        -3.4370    0.4100    0.0220 o         1 MOL     -0.478608
    157 H67        -3.7820    2.1110   -0.2820 hn        1 MOL      0.100862
    158 H68        -2.5680    3.8460   -2.2080 h1        1 MOL      0.159544
    159 H69        -2.2670    1.5570   -3.5000 hc        1 MOL     -0.050958
    160 H70        -3.5870    0.9430   -2.5650 hc        1 MOL     -0.050958
    161 H71        -0.9740    1.8250   -1.3300 hc        1 MOL      0.170369
    162 H72        -1.1250    0.2400   -2.0850 hc        1 MOL      0.170369
    163 N14        -5.5350    2.7390   -3.3830 n         1 MOL     -0.254703
    164 C55        -6.6180    3.0660   -4.2860 c3        1 MOL     -0.301964
    165 H73        -7.3790    3.6320   -3.7500 h1        1 MOL      0.120912
    166 H74        -6.2350    3.6650   -5.1120 h1        1 MOL      0.120912
    167 H75        -7.0560    2.1470   -4.6770 h1        1 MOL      0.120912
    168 H76        -5.6620    2.0520   -2.6560 hn        1 MOL      0.252052
    169 Ca1         0.3350   -1.1660    1.9540 Ca        1 MOL      1.712080
    170 O24         1.0210   -3.6420    3.0090 oh        1 MOL     -0.927879
    171 H77         0.7200   -4.4030    3.4970 ho        1 MOL      0.440093
    172 H78         1.9040   -3.4820    3.3270 ho        1 MOL      0.440093
    173 O25         2.0560    0.7880    0.7380 oh        1 MOL     -0.927879
    174 H79         1.7550    1.6410    0.4310 ho        1 MOL      0.440093
    175 H80         2.8430    0.6100    0.2250 ho        1 MOL      0.440093
    176 O26        -0.2760    1.1630    2.9990 oh        1 MOL     -0.927879
    177 H81         0.2460    1.6440    3.6400 ho        1 MOL      0.440093
    178 H82        -1.1240    1.6090    3.0100 ho        1 MOL      0.440093
    179 O27         2.3880   -2.2370    0.5380 oh        1 MOL     -0.927879
    180 H83         2.8790   -3.0470    0.6490 ho        1 MOL      0.440093
    181 H84         3.0530   -1.5740    0.3380 ho        1 MOL      0.440093
@<TRIPOS>BOND
     1    1    2 1   
     2    1    4 1   
     3    1    5 1   
     4    1    6 1   
     5    2    3 2   
     6    2    7 1   
     7    7    8 1   
     8    7   15 1   
     9    8    9 1   
    10    8   11 1   
    11    8   16 1   
    12    9   10 2   
    13    9   19 1   
    14   11   12 1   
    15   11   17 1   
    16   11   18 1   
    17   12   13 1   
    18   12   14 1   
    19   19   20 1   
    20   19   24 1   
    21   20   21 1   
    22   20   23 1   
    23   20   25 1   
    24   21   22 2   
    25   21   29 1   
    26   23   26 1   
    27   23   27 1   
    28   23   28 1   
    29   29   30 1   
    30   29   37 1   
    31   30   31 1   
    32   30   33 1   
    33   30   38 1   
    34   31   32 2   
    35   31   41 1   
    36   33   34 1   
    37   33   39 1   
    38   33   40 1   
    39   34   35 1   
    40   34   36 1   
    41   41   42 1   
    42   41   45 1   
    43   42   43 1   
    44   42   46 1   
    45   42   47 1   
    46   43   44 2   
    47   43   48 1   
    48   48   49 1   
    49   48   56 1   
    50   49   50 1   
    51   49   52 1   
    52   49   57 1   
    53   50   51 2   
    54   50   62 1   
    55   52   53 1   
    56   52   58 1   
    57   52   59 1   
    58   53   54 1   
    59   53   55 2   
    60   54   60 1   
    61   54   61 1   
    62   62   63 1   
    63   62   66 1   
    64   63   64 1   
    65   63   67 1   
    66   63   68 1   
    67   64   65 2   
    68   64   69 1   
    69   69   70 1   
    70   69   76 1   
    71   70   71 1   
    72   70   73 1   
    73   70   77 1   
    74   71   72 2   
    75   71   83 1   
    76   73   74 1   
    77   73   75 1   
    78   73   78 1   
    79   74   80 1   
    80   74   81 1   
    81   74   82 1   
    82   75   79 1   
    83   83   84 1   
    84   83   91 1   
    85   84   85 1   
    86   84   87 1   
    87   84   92 1   
    88   85   86 2   
    89   85  102 1   
    90   87   88 1   
    91   87   89 1   
    92   87   93 1   
    93   88   90 1   
    94   88   94 1   
    95   88   95 1   
    96   89   96 1   
    97   89   97 1   
    98   89   98 1   
    99   90   99 1   
   100   90  100 1   
   101   90  101 1   
   102  102  103 1   
   103  102  110 1   
   104  103  104 1   
   105  103  106 1   
   106  103  111 1   
   107  104  105 2   
   108  104  114 1   
   109  106  107 1   
   110  106  112 1   
   111  106  113 1   
   112  107  108 1   
   113  107  109 1   
   114  114  115 1   
   115  114  125 1   
   116  115  116 1   
   117  115  118 1   
   118  115  126 1   
   119  116  117 2   
   120  116  134 1   
   121  118  119 1   
   122  118  127 1   
   123  118  128 1   
   124  119  120 ar  
   125  119  121 ar  
   126  120  122 ar  
   127  120  129 1   
   128  121  123 ar  
   129  121  130 1   
   130  122  124 ar  
   131  122  131 1   
   132  123  124 ar  
   133  123  132 1   
   134  124  133 1   
   135  134  135 1   
   136  134  140 1   
   137  135  136 1   
   138  135  138 1   
   139  135  141 1   
   140  136  137 2   
   141  136  148 1   
   142  138  139 1   
   143  138  142 1   
   144  138  143 1   
   145  139  140 1   
   146  139  144 1   
   147  139  145 1   
   148  140  146 1   
   149  140  147 1   
   150  148  149 1   
   151  148  157 1   
   152  149  150 1   
   153  149  152 1   
   154  149  158 1   
   155  150  151 2   
   156  150  163 1   
   157  152  153 1   
   158  152  159 1   
   159  152  160 1   
   160  153  154 1   
   161  153  161 1   
   162  153  162 1   
   163  154  155 1   
   164  154  156 1   
   165  163  164 1   
   166  163  168 1   
   167  164  165 1   
   168  164  166 1   
   169  164  167 1   
   170  170  171 1   
   171  170  172 1   
   172  173  174 1   
   173  173  175 1   
   174  176  177 1   
   175  176  178 1   
   176  179  180 1   
   177  179  181 1   
@<TRIPOS>SUBSTRUCTURE
     1 MOL         1 TEMP              0 ****  ****    0 ROOT
