@<TRIPOS>MOLECULE
MOL
  186   183     1     0     0
SMALL
resp


@<TRIPOS>ATOM
      1 C1          4.2960    4.2200   -3.6640 c3        1 MOL     -0.377068
      2 C2          4.9340    3.2080   -2.6450 c         1 MOL      0.753727
      3 O1          4.4090    3.0940   -1.5490 o         1 MOL     -0.554616
      4 H1          3.4030    3.7770   -4.1040 hc        1 MOL      0.091316
      5 H2          4.0270    5.1390   -3.1450 hc        1 MOL      0.091316
      6 H3          5.0150    4.4450   -4.4530 hc        1 MOL      0.091316
      7 N1          6.0170    2.5340   -3.1390 n         1 MOL     -0.751143
      8 C3          6.8120    1.4530   -2.5220 c3        1 MOL      0.331898
      9 C4          5.9290    0.2940   -1.9800 c         1 MOL      0.144512
     10 O2          5.4730    0.2320   -0.8240 o         1 MOL     -0.446011
     11 C5          7.8070    1.8650   -1.4520 c3        1 MOL     -0.149313
     12 C6          7.5060    2.9900   -0.5330 c         1 MOL      0.810152
     13 O3          6.6620    2.9640    0.4050 o         1 MOL     -0.751675
     14 O4          8.1710    4.0260   -0.6730 o         1 MOL     -0.751675
     15 H4          6.3110    2.8600   -4.0440 hn        1 MOL      0.349612
     16 H5          7.4630    1.0400   -3.2960 h1        1 MOL      0.023523
     17 H6          8.7150    2.1130   -2.0030 hc        1 MOL      0.011794
     18 H7          8.0680    0.9930   -0.8440 hc        1 MOL      0.011794
     19 N2          5.5210   -0.5710   -2.9580 n         1 MOL     -0.330307
     20 C7          4.7920   -1.8690   -2.7270 c3        1 MOL      0.246903
     21 C8          5.5500   -2.8600   -1.8670 c         1 MOL      0.320857
     22 O5          5.8050   -3.9410   -2.3990 o         1 MOL     -0.552894
     23 C9          3.3150   -1.7020   -2.4270 c3        1 MOL      0.057207
     24 C10         2.6060   -3.1230   -2.3770 c3        1 MOL     -0.209025
     25 C11         2.6420   -0.6450   -3.3000 c3        1 MOL     -0.061985
     26 C12         2.3740   -3.8430   -3.6800 c3        1 MOL     -0.273563
     27 H8          5.9400   -0.6600   -3.8740 hn        1 MOL      0.235699
     28 H9          4.8040   -2.3910   -3.6830 h1        1 MOL     -0.002161
     29 H10         3.0880   -1.3800   -1.4090 hc        1 MOL      0.036295
     30 H11         1.6270   -3.0420   -1.9100 hc        1 MOL      0.095527
     31 H12         3.1200   -3.7480   -1.6520 hc        1 MOL      0.095527
     32 H13         3.0190    0.3440   -3.0510 hc        1 MOL      0.001679
     33 H14         3.0270   -0.7940   -4.3130 hc        1 MOL      0.001679
     34 H15         1.5710   -0.8230   -3.2740 hc        1 MOL      0.001679
     35 H16         1.9610   -4.8230   -3.4640 hc        1 MOL      0.068207
     36 H17         1.6100   -3.4340   -4.3440 hc        1 MOL      0.068207
     37 H18         3.2690   -4.0980   -4.2410 hc        1 MOL      0.068207
     38 N3          5.7920   -2.6280   -0.5410 n         1 MOL     -0.100273
     39 C13         6.6070   -3.5190    0.3010 c3        1 MOL      0.012161
     40 C14         5.8500   -4.8850    0.6890 c         1 MOL      0.648367
     41 O6          6.5290   -5.8810    0.7720 o         1 MOL     -0.591421
     42 C15         7.2780   -2.8220    1.4670 c3        1 MOL     -0.186782
     43 C16         8.0740   -1.6200    1.0210 c         1 MOL      0.783003
     44 O7          7.9400   -0.4940    1.5280 o         1 MOL     -0.728674
     45 O8          9.0210   -1.8720    0.2040 o         1 MOL     -0.728674
     46 H19         5.5370   -1.7470   -0.1350 hn        1 MOL      0.256257
     47 H20         7.4290   -3.8700   -0.3270 h1        1 MOL      0.035506
     48 H21         7.9680   -3.5190    1.9490 hc        1 MOL      0.039902
     49 H22         6.5660   -2.5160    2.2390 hc        1 MOL      0.039902
     50 N4          4.5710   -5.0510    1.0940 n         1 MOL     -0.679852
     51 C17         3.6930   -3.9570    1.5270 c3        1 MOL      0.328994
     52 C18         4.1060   -3.3870    2.9150 c         1 MOL      0.389610
     53 O9          4.9790   -4.0120    3.5960 o         1 MOL     -0.539162
     54 H23         4.3190   -6.0070    1.3070 hn        1 MOL      0.326536
     55 H24         2.6900   -4.3640    1.6600 h1        1 MOL     -0.002474
     56 H25         3.6480   -3.1820    0.7580 h1        1 MOL     -0.002474
     57 N5          3.4210   -2.3980    3.4970 n         1 MOL     -0.309776
     58 C19         2.2820   -1.7330    2.9790 c3        1 MOL     -0.027879
     59 C20         2.4650   -1.0230    1.6240 c         1 MOL     -0.015125
     60 O10         3.5480   -0.6200    1.2130 o         1 MOL     -0.536962
     61 C21         1.8980   -0.5470    3.8920 c3        1 MOL     -0.302425
     62 C22         2.8490    0.6480    3.9240 c         1 MOL      0.837615
     63 O11         3.3490    0.9650    5.0040 o         1 MOL     -0.716364
     64 O12         2.8210    1.4830    2.9960 o         1 MOL     -0.716364
     65 H26         3.7890   -2.1090    4.4020 hn        1 MOL      0.269750
     66 H27         1.4890   -2.4660    2.8910 h1        1 MOL      0.086044
     67 H28         1.8590   -0.9570    4.9010 hc        1 MOL      0.095497
     68 H29         0.9300   -0.0980    3.6640 hc        1 MOL      0.095497
     69 N6          1.4040   -0.7790    0.8580 n         1 MOL      0.013331
     70 C23        -0.0090   -1.1430    1.0840 c3        1 MOL     -0.038410
     71 C24        -0.3530   -2.6300    0.6830 c         1 MOL      0.406876
     72 O13         0.5650   -3.4370    0.4320 o         1 MOL     -0.463815
     73 H30         1.6040   -0.1040    0.1290 hn        1 MOL      0.180494
     74 H31        -0.6740   -0.5480    0.4660 h1        1 MOL      0.069472
     75 H32        -0.3550   -0.9510    2.1040 h1        1 MOL      0.069472
     76 N7         -1.6390   -3.0060    0.5870 n         1 MOL     -0.287076
     77 C25        -2.1670   -4.2520    0.0620 c3        1 MOL      0.030033
     78 C26        -2.9300   -4.1130   -1.2900 c         1 MOL      0.422831
     79 O14        -3.0020   -5.0520   -2.0870 o         1 MOL     -0.515482
     80 C27        -3.1070   -4.9220    1.0420 c3        1 MOL      0.009621
     81 C28        -4.2530   -4.2870    1.7660 c3        1 MOL     -0.430623
     82 C29        -5.3190   -3.7920    0.7980 c         1 MOL      0.387220
     83 N8         -6.0270   -4.6710    0.1050 n         1 MOL     -0.564029
     84 O15        -5.3840   -2.5700    0.4690 o         1 MOL     -0.391187
     85 H33        -2.2780   -2.2700    0.8760 hn        1 MOL      0.209052
     86 H34        -1.2980   -4.9030   -0.1110 h1        1 MOL      0.105497
     87 H35        -2.5330   -5.3450    1.8770 hc        1 MOL      0.029654
     88 H36        -3.5510   -5.7230    0.4550 hc        1 MOL      0.029654
     89 H37        -4.0640   -3.4130    2.3970 hc        1 MOL      0.174731
     90 H38        -4.5780   -5.0780    2.4400 hc        1 MOL      0.174731
     91 H39        -6.1350   -5.6290    0.4120 hn        1 MOL      0.322653
     92 H40        -6.6810   -4.3030   -0.5730 hn        1 MOL      0.322653
     93 N9         -3.3320   -2.8550   -1.5790 n         1 MOL     -0.253166
     94 C30        -3.6480   -2.2750   -2.9200 c3        1 MOL     -0.092824
     95 C31        -5.0320   -1.5380   -3.1710 c         1 MOL      0.363177
     96 O16        -5.5040   -1.2530   -4.2680 o         1 MOL     -0.539084
     97 C32        -2.5340   -1.4000   -3.4430 c3        1 MOL      0.054128
     98 C33        -1.2560   -2.3010   -3.7970 c3        1 MOL     -0.102961
     99 C34        -2.3060   -0.1930   -2.4850 c3        1 MOL     -0.102961
    100 H41        -3.3410   -2.1880   -0.8260 hn        1 MOL      0.220998
    101 H42        -3.5600   -3.1430   -3.5740 h1        1 MOL      0.114059
    102 H43        -2.8810   -1.0530   -4.4110 hc        1 MOL      0.026599
    103 H44        -0.4770   -1.7080   -4.2700 hc        1 MOL      0.030462
    104 H45        -0.7700   -2.6460   -2.8780 hc        1 MOL      0.030462
    105 H46        -1.4390   -3.1540   -4.4570 hc        1 MOL      0.030462
    106 H47        -3.2560    0.1840   -2.1230 hc        1 MOL      0.030462
    107 H48        -1.6890   -0.4730   -1.6370 hc        1 MOL      0.030462
    108 H49        -1.7510    0.6140   -2.9670 hc        1 MOL      0.030462
    109 N10        -5.7500   -1.2250   -2.0880 n         1 MOL      0.046017
    110 C35        -7.0640   -0.5250   -2.1180 c3        1 MOL     -0.025659
    111 C36        -7.0070    0.8810   -1.6210 c         1 MOL      0.441182
    112 O17        -8.0670    1.5930   -1.6710 o         1 MOL     -0.553883
    113 C37        -8.0450   -1.4280   -1.4180 c3        1 MOL     -0.044733
    114 C38        -8.3520   -2.6990   -2.2810 c         1 MOL      0.655042
    115 N11        -9.4110   -2.5880   -3.0080 n         1 MOL     -0.793854
    116 O18        -7.6490   -3.7310   -2.2980 o         1 MOL     -0.584124
    117 H50        -5.4320   -1.5740   -1.1860 hn        1 MOL      0.062753
    118 H51        -7.4520   -0.3990   -3.1340 h1        1 MOL      0.069954
    119 H52        -8.9970   -0.9350   -1.2180 hc        1 MOL     -0.007755
    120 H53        -7.6750   -1.7680   -0.4540 hc        1 MOL     -0.007755
    121 H54       -10.0330   -1.8020   -3.0380 hn        1 MOL      0.370703
    122 H55        -9.3440   -3.2330   -3.7900 hn        1 MOL      0.370703
    123 N12        -5.9470    1.2510   -0.9130 n         1 MOL     -0.440614
    124 C39        -5.9320    2.3940   -0.0600 c3        1 MOL      0.293807
    125 C40        -4.4980    2.8700    0.2590 c         1 MOL      0.274183
    126 O19        -3.5080    2.2060   -0.0110 o         1 MOL     -0.404609
    127 C41        -6.6500    2.1340    1.3370 c3        1 MOL     -0.170590
    128 C42        -6.7080    0.7300    1.9060 ca        1 MOL      0.116072
    129 C43        -7.8220   -0.1180    1.7190 ca        1 MOL     -0.235974
    130 C44        -5.7410    0.2670    2.7710 ca        1 MOL     -0.235974
    131 C45        -7.9760   -1.3280    2.4840 ca        1 MOL     -0.192047
    132 C46        -5.7900   -0.9940    3.4030 ca        1 MOL     -0.192047
    133 C47        -6.9640   -1.7480    3.3640 ca        1 MOL      0.292038
    134 O20        -7.0390   -2.9010    4.0710 oh        1 MOL     -0.479634
    135 H56        -5.1720    0.6040   -0.8240 hn        1 MOL      0.270104
    136 H57        -6.4180    3.2810   -0.4720 h1        1 MOL      0.027760
    137 H58        -7.7000    2.3770    1.1750 hc        1 MOL      0.060613
    138 H59        -6.3240    2.8090    2.1230 hc        1 MOL      0.060613
    139 H60        -8.5790    0.2480    1.0400 ha        1 MOL      0.170528
    140 H61        -4.8460    0.8550    2.9150 ha        1 MOL      0.170528
    141 H62        -8.9360   -1.8250    2.3580 ha        1 MOL      0.117587
    142 H63        -4.9640   -1.3020    4.0320 ha        1 MOL      0.117587
    143 H64        -7.8780   -3.3560    4.1040 ho        1 MOL      0.342667
    144 N13        -4.4490    4.0720    0.8530 n         1 MOL     -0.422895
    145 C48        -3.2980    4.7970    1.5210 c3        1 MOL      0.022178
    146 C49        -2.0850    5.0780    0.5820 c         1 MOL      0.299794
    147 O21        -1.4540    6.1060    0.7610 o         1 MOL     -0.530967
    148 C50        -2.8630    4.0560    2.8200 c3        1 MOL      0.127936
    149 C51        -3.7130    4.2980    4.0350 c3        1 MOL     -0.022318
    150 C52        -3.1520    3.4070    5.1290 c         1 MOL      0.507109
    151 O22        -3.5080    2.2040    5.1180 o         1 MOL     -0.647535
    152 O23        -2.2810    3.9300    5.8910 o         1 MOL     -0.647535
    153 H65        -5.3540    4.5220    0.9240 hn        1 MOL      0.251043
    154 H66        -3.6420    5.7330    1.9500 h1        1 MOL      0.069782
    155 H67        -1.8420    4.3720    3.0320 hc        1 MOL      0.040029
    156 H68        -2.7940    2.9910    2.5900 hc        1 MOL      0.040029
    157 H69        -4.7760    4.0750    3.8990 hc        1 MOL     -0.040745
    158 H70        -3.5040    5.3410    4.2900 hc        1 MOL     -0.040745
    159 N14        -1.7680    4.3480   -0.4350 n         1 MOL     -0.073077
    160 C53        -0.6480    4.6750   -1.4200 c3        1 MOL     -0.240957
    161 C54        -1.0400    5.8060   -2.3840 c         1 MOL      0.527341
    162 O24        -0.2420    6.3380   -3.0770 o         1 MOL     -0.519545
    163 C55        -0.2840    3.3450   -2.0810 c3        1 MOL      0.021854
    164 C56         0.0880    2.0630   -1.2310 c3        1 MOL      0.419852
    165 C57         1.3760    2.2760   -0.4580 c         1 MOL      0.485999
    166 O25         1.5640    3.2050    0.4040 o         1 MOL     -0.644269
    167 O26         2.2830    1.4280   -0.6510 o         1 MOL     -0.644269
    168 H71        -2.1530    3.4120   -0.4600 hn        1 MOL      0.125297
    169 H72         0.2170    4.9820   -0.8170 h1        1 MOL      0.180158
    170 H73         0.5170    3.4310   -2.8080 hc        1 MOL     -0.005350
    171 H74        -1.1790    3.0810   -2.6520 hc        1 MOL     -0.005350
    172 H75         0.1910    1.3050   -2.0110 hc        1 MOL     -0.144057
    173 H76        -0.6730    1.7010   -0.5350 hc        1 MOL     -0.144057
    174 N15        -2.3620    6.0960   -2.4300 n         1 MOL     -0.241472
    175 C58        -3.0070    6.8730   -3.4720 c3        1 MOL     -0.168966
    176 H77        -3.8760    6.3310   -3.8450 h1        1 MOL      0.072717
    177 H78        -3.3250    7.8330   -3.0670 h1        1 MOL      0.072717
    178 H79        -2.3050    7.0390   -4.2890 h1        1 MOL      0.072717
    179 H80        -2.9640    5.5520   -1.8270 hn        1 MOL      0.193419
    180 Ca1         4.2750    1.9200    0.8650 Ca        1 MOL      1.745443
    181 O27         4.2200    4.5070    1.8010 oh        1 MOL     -0.844808
    182 H81         3.8320    4.8000    2.6270 ho        1 MOL      0.410469
    183 H82         3.7550    4.9990    1.1320 ho        1 MOL      0.410469
    184 O28         5.9670    0.9970    2.6800 oh        1 MOL     -0.844808
    185 H83         5.9570    0.5910    3.5470 ho        1 MOL      0.410469
    186 H84         6.5110    0.4170    2.1470 ho        1 MOL      0.410469
@<TRIPOS>BOND
     1    1    2 1   
     2    1    4 1   
     3    1    5 1   
     4    1    6 1   
     5    2    3 2   
     6    2    7 1   
     7    7    8 1   
     8    7   15 1   
     9    8    9 1   
    10    8   11 1   
    11    8   16 1   
    12    9   10 2   
    13    9   19 1   
    14   11   12 1   
    15   11   17 1   
    16   11   18 1   
    17   12   13 1   
    18   12   14 1   
    19   19   20 1   
    20   19   27 1   
    21   20   21 1   
    22   20   23 1   
    23   20   28 1   
    24   21   22 2   
    25   21   38 1   
    26   23   24 1   
    27   23   25 1   
    28   23   29 1   
    29   24   26 1   
    30   24   30 1   
    31   24   31 1   
    32   25   32 1   
    33   25   33 1   
    34   25   34 1   
    35   26   35 1   
    36   26   36 1   
    37   26   37 1   
    38   38   39 1   
    39   38   46 1   
    40   39   40 1   
    41   39   42 1   
    42   39   47 1   
    43   40   41 2   
    44   40   50 1   
    45   42   43 1   
    46   42   48 1   
    47   42   49 1   
    48   43   44 1   
    49   43   45 1   
    50   50   51 1   
    51   50   54 1   
    52   51   52 1   
    53   51   55 1   
    54   51   56 1   
    55   52   53 2   
    56   52   57 1   
    57   57   58 1   
    58   57   65 1   
    59   58   59 1   
    60   58   61 1   
    61   58   66 1   
    62   59   60 2   
    63   59   69 1   
    64   61   62 1   
    65   61   67 1   
    66   61   68 1   
    67   62   63 1   
    68   62   64 1   
    69   69   70 1   
    70   69   73 1   
    71   70   71 1   
    72   70   74 1   
    73   70   75 1   
    74   71   72 2   
    75   71   76 1   
    76   76   77 1   
    77   76   85 1   
    78   77   78 1   
    79   77   80 1   
    80   77   86 1   
    81   78   79 2   
    82   78   93 1   
    83   80   81 1   
    84   80   87 1   
    85   80   88 1   
    86   81   82 1   
    87   81   89 1   
    88   81   90 1   
    89   82   83 1   
    90   82   84 2   
    91   83   91 1   
    92   83   92 1   
    93   93   94 1   
    94   93  100 1   
    95   94   95 1   
    96   94   97 1   
    97   94  101 1   
    98   95   96 2   
    99   95  109 1   
   100   97   98 1   
   101   97   99 1   
   102   97  102 1   
   103   98  103 1   
   104   98  104 1   
   105   98  105 1   
   106   99  106 1   
   107   99  107 1   
   108   99  108 1   
   109  109  110 1   
   110  109  117 1   
   111  110  111 1   
   112  110  113 1   
   113  110  118 1   
   114  111  112 2   
   115  111  123 1   
   116  113  114 1   
   117  113  119 1   
   118  113  120 1   
   119  114  115 1   
   120  114  116 2   
   121  115  121 1   
   122  115  122 1   
   123  123  124 1   
   124  123  135 1   
   125  124  125 1   
   126  124  127 1   
   127  124  136 1   
   128  125  126 2   
   129  125  144 1   
   130  127  128 1   
   131  127  137 1   
   132  127  138 1   
   133  128  129 ar  
   134  128  130 ar  
   135  129  131 ar  
   136  129  139 1   
   137  130  132 ar  
   138  130  140 1   
   139  131  133 ar  
   140  131  141 1   
   141  132  133 ar  
   142  132  142 1   
   143  133  134 1   
   144  134  143 1   
   145  144  145 1   
   146  144  153 1   
   147  145  146 1   
   148  145  148 1   
   149  145  154 1   
   150  146  147 2   
   151  146  159 1   
   152  148  149 1   
   153  148  155 1   
   154  148  156 1   
   155  149  150 1   
   156  149  157 1   
   157  149  158 1   
   158  150  151 1   
   159  150  152 1   
   160  159  160 1   
   161  159  168 1   
   162  160  161 1   
   163  160  163 1   
   164  160  169 1   
   165  161  162 2   
   166  161  174 1   
   167  163  164 1   
   168  163  170 1   
   169  163  171 1   
   170  164  165 1   
   171  164  172 1   
   172  164  173 1   
   173  165  166 1   
   174  165  167 1   
   175  174  175 1   
   176  174  179 1   
   177  175  176 1   
   178  175  177 1   
   179  175  178 1   
   180  181  182 1   
   181  181  183 1   
   182  184  185 1   
   183  184  186 1   
@<TRIPOS>SUBSTRUCTURE
     1 MOL         1 TEMP              0 ****  ****    0 ROOT
