@<TRIPOS>MOLECULE
MOL
  189   185     1     0     0
SMALL
resp


@<TRIPOS>ATOM
      1 C1          3.7310    5.0350   -2.8120 c3        1 MOL     -0.399938
      2 C2          4.5990    4.0420   -1.9460 c         1 MOL      0.715448
      3 O1          4.0780    3.5830   -0.8980 o         1 MOL     -0.607701
      4 H1          3.7550    4.7230   -3.8570 hc        1 MOL      0.097108
      5 H2          2.7020    5.0260   -2.4540 hc        1 MOL      0.097108
      6 H3          4.1370    6.0430   -2.7260 hc        1 MOL      0.097108
      7 N1          5.8090    3.8140   -2.3290 n         1 MOL     -0.524503
      8 C3          6.6090    2.5970   -1.9090 c3        1 MOL      0.264661
      9 C4          5.6460    1.3720   -1.8200 c         1 MOL      0.311187
     10 O2          5.1860    0.9370   -0.7430 o         1 MOL     -0.595895
     11 C5          7.5900    2.7760   -0.7250 c3        1 MOL     -0.115477
     12 C6          7.0370    3.5180    0.4980 c         1 MOL      0.663114
     13 O3          6.2510    2.9090    1.2900 o         1 MOL     -0.704577
     14 O4          7.2090    4.7510    0.5340 o         1 MOL     -0.704577
     15 H4          6.0940    4.3270   -3.1500 hn        1 MOL      0.283644
     16 H5          7.2610    2.2880   -2.7310 h1        1 MOL      0.004609
     17 H6          8.4860    3.2690   -1.1080 hc        1 MOL      0.011571
     18 H7          7.9990    1.8020   -0.4210 hc        1 MOL      0.011571
     19 N2          5.2570    0.9410   -3.0290 n         1 MOL     -0.404713
     20 C7          4.5650   -0.3240   -3.3760 c3        1 MOL      0.144050
     21 C8          5.3280   -1.5790   -2.9460 c         1 MOL      0.273450
     22 O5          5.6480   -2.3270   -3.8710 o         1 MOL     -0.554470
     23 C9          3.1170   -0.2890   -2.8710 c3        1 MOL      0.140572
     24 C10         2.2630   -1.5070   -3.4260 c3        1 MOL      0.204458
     25 C11         2.2070    0.9880   -3.1730 c3        1 MOL     -0.360561
     26 C12         2.0030   -1.5160   -4.9940 c3        1 MOL     -0.371443
     27 H8          5.6280    1.4820   -3.8030 hn        1 MOL      0.245521
     28 H9          4.4160   -0.4170   -4.4500 h1        1 MOL      0.021708
     29 H10         3.2360   -0.4480   -1.7960 hc        1 MOL     -0.032684
     30 H11         1.2430   -1.4030   -3.0590 hc        1 MOL      0.006178
     31 H12         2.6710   -2.4820   -3.1540 hc        1 MOL      0.006178
     32 H13         2.3930    1.2630   -4.2090 hc        1 MOL      0.074570
     33 H14         1.1490    0.8160   -2.9860 hc        1 MOL      0.074570
     34 H15         2.4800    1.7980   -2.5080 hc        1 MOL      0.074570
     35 H16         1.3670   -2.3990   -5.1510 hc        1 MOL      0.067409
     36 H17         1.4360   -0.6370   -5.3050 hc        1 MOL      0.067409
     37 H18         2.9100   -1.6260   -5.5900 hc        1 MOL      0.067409
     38 N3          5.5660   -1.8030   -1.6450 n         1 MOL      0.210998
     39 C13         6.5210   -2.7600   -1.0750 c3        1 MOL     -0.372027
     40 C14         5.9700   -4.1630   -0.8810 c         1 MOL      0.793100
     41 O6          6.6490   -5.1250   -1.0840 o         1 MOL     -0.565947
     42 C15         6.9900   -2.1980    0.2760 c3        1 MOL     -0.297661
     43 C16         8.3160   -2.8830    0.7960 c         1 MOL      0.752875
     44 O7          8.2190   -3.3530    1.9300 o         1 MOL     -0.733820
     45 O8          9.3940   -2.8340    0.1510 o         1 MOL     -0.733820
     46 H19         5.0600   -1.2290   -0.9780 hn        1 MOL      0.160925
     47 H20         7.3870   -2.7260   -1.7480 h1        1 MOL      0.119887
     48 H21         6.2290   -2.3830    1.0330 hc        1 MOL      0.126542
     49 H22         7.1300   -1.1160    0.2020 hc        1 MOL      0.126542
     50 N4          4.6320   -4.3530   -0.7410 n         1 MOL     -0.795358
     51 C17         3.6720   -3.4570   -0.0270 c3        1 MOL      0.605395
     52 C18         2.5710   -4.2560    0.6680 c         1 MOL      0.384766
     53 O9          2.3870   -5.4630    0.4010 o         1 MOL     -0.545352
     54 H23         4.3130   -5.3100   -0.6890 hn        1 MOL      0.320870
     55 H24         3.2580   -2.7740   -0.7620 h1        1 MOL     -0.116006
     56 H25         4.2740   -2.8320    0.6270 h1        1 MOL     -0.116006
     57 N5          1.8620   -3.6620    1.6230 n         1 MOL     -0.432977
     58 C19         2.1220   -2.4140    2.3380 c3        1 MOL      0.126991
     59 C20         2.2260   -1.0710    1.4870 c         1 MOL      0.052671
     60 O10         3.2790   -0.5740    1.2210 o         1 MOL     -0.422839
     61 C21         3.2970   -2.6360    3.2950 c3        1 MOL     -0.162483
     62 C22         3.4690   -1.5270    4.3840 c         1 MOL      0.631544
     63 O11         2.4790   -0.7930    4.7290 o         1 MOL     -0.661288
     64 O12         4.6140   -1.3610    4.8230 o         1 MOL     -0.661288
     65 H26         1.1390   -4.1680    2.1150 hn        1 MOL      0.289405
     66 H27         1.2810   -2.2890    3.0260 h1        1 MOL      0.033771
     67 H28         4.2010   -2.7360    2.6990 hc        1 MOL      0.056488
     68 H29         3.0330   -3.5670    3.8000 hc        1 MOL      0.056488
     69 N6          1.1400   -0.5290    1.0170 n         1 MOL      0.026694
     70 C23        -0.1960   -1.0880    1.0560 c3        1 MOL     -0.081706
     71 C24        -0.4950   -2.2030    0.1190 c         1 MOL      0.561379
     72 O13         0.1990   -2.3820   -0.9440 o         1 MOL     -0.530228
     73 H30         1.3190    0.3220    0.4950 hn        1 MOL      0.062952
     74 H31        -0.9210   -0.3340    0.7580 h1        1 MOL      0.037215
     75 H32        -0.2990   -1.4990    2.0570 h1        1 MOL      0.037215
     76 N7         -1.6700   -2.8390    0.2100 n         1 MOL     -0.309602
     77 C25        -2.1550   -3.9620   -0.6650 c3        1 MOL     -0.224942
     78 C26        -2.7170   -3.6040   -2.0490 c         1 MOL      0.458175
     79 O14        -2.6830   -4.3920   -2.9100 o         1 MOL     -0.471005
     80 C27        -3.3240   -4.6220    0.1630 c3        1 MOL      0.138506
     81 C28        -2.8490   -5.6770    1.1880 c3        1 MOL     -0.255712
     82 C29        -2.1640   -6.8770    0.5490 c         1 MOL      0.704248
     83 N8         -2.3110   -8.0170    1.1380 n         1 MOL     -0.771907
     84 O15        -1.6480   -6.9620   -0.5590 o         1 MOL     -0.531380
     85 H33        -2.2550   -2.5980    0.9950 hn        1 MOL      0.146026
     86 H34        -1.2790   -4.5460   -0.9500 h1        1 MOL      0.193388
     87 H35        -4.0690   -5.0520   -0.5100 hc        1 MOL      0.000198
     88 H36        -3.8890   -3.8270    0.6490 hc        1 MOL      0.000198
     89 H37        -3.6940   -6.0650    1.7560 hc        1 MOL      0.062005
     90 H38        -2.1480   -5.1540    1.8330 hc        1 MOL      0.062005
     91 H39        -2.8880   -8.1930    1.9460 hn        1 MOL      0.336883
     92 H40        -2.1160   -8.8490    0.6000 hn        1 MOL      0.336883
     93 N9         -3.3360   -2.3960   -2.0880 n         1 MOL     -0.288422
     94 C30        -3.9240   -1.7870   -3.3840 c3        1 MOL     -0.198383
     95 C31        -5.3140   -1.2430   -3.3150 c         1 MOL      0.485936
     96 O16        -5.6640   -0.5070   -4.1650 o         1 MOL     -0.529342
     97 C32        -2.9540   -0.6670   -3.9750 c3        1 MOL      0.277593
     98 C33        -1.5390   -1.1560   -4.2830 c3        1 MOL     -0.237792
     99 C34        -2.9050    0.5080   -2.9890 c3        1 MOL     -0.237792
    100 H41        -3.2390   -1.8260   -1.2650 hn        1 MOL      0.278964
    101 H42        -3.9210   -2.5600   -4.1480 h1        1 MOL      0.121298
    102 H43        -3.2940   -0.2770   -4.9320 hc        1 MOL     -0.019547
    103 H44        -1.1890   -1.6360   -3.3680 hc        1 MOL      0.063832
    104 H45        -1.6060   -1.9950   -4.9760 hc        1 MOL      0.063832
    105 H46        -0.9470   -0.2870   -4.5540 hc        1 MOL      0.063832
    106 H47        -3.8850    0.9060   -2.7210 hc        1 MOL      0.063832
    107 H48        -2.3420    0.1240   -2.1460 hc        1 MOL      0.063832
    108 H49        -2.4220    1.3520   -3.4890 hc        1 MOL      0.063832
    109 N10        -5.9830   -1.4250   -2.1800 n         1 MOL     -0.327410
    110 C35        -7.3240   -0.7970   -1.9380 c3        1 MOL      0.049685
    111 C36        -7.3490    0.4330   -0.9590 c         1 MOL      0.543339
    112 O17        -8.3890    1.0620   -0.9150 o         1 MOL     -0.537441
    113 C37        -8.1460   -1.9680   -1.3080 c3        1 MOL     -0.107215
    114 C38        -9.6350   -1.6810   -1.3320 c         1 MOL      0.651238
    115 N11       -10.2230   -1.6010   -2.4880 n         1 MOL     -0.822902
    116 O18       -10.3080   -1.8340   -0.2790 o         1 MOL     -0.573932
    117 H50        -5.5730   -2.0990   -1.5490 hn        1 MOL      0.182741
    118 H51        -7.7800   -0.4530   -2.8670 h1        1 MOL      0.062228
    119 H52        -7.9570   -1.8460   -0.2430 hc        1 MOL      0.047095
    120 H53        -7.9640   -3.0050   -1.6100 hc        1 MOL      0.047095
    121 H54        -9.7560   -1.6950   -3.3810 hn        1 MOL      0.373373
    122 H55       -11.2240   -1.5170   -2.4690 hn        1 MOL      0.373373
    123 N12        -6.2790    0.7390   -0.2130 n         1 MOL     -0.432370
    124 C39        -6.3120    1.7540    0.9190 c3        1 MOL      0.367783
    125 C40        -4.9880    2.5380    1.0850 c         1 MOL      0.195969
    126 O19        -3.9840    2.1120    0.5720 o         1 MOL     -0.359925
    127 C41        -6.7810    1.1760    2.2460 c3        1 MOL     -0.276888
    128 C42        -6.0660   -0.0670    2.8290 ca        1 MOL      0.005703
    129 C43        -4.7460    0.0340    3.3750 ca        1 MOL     -0.156694
    130 C44        -6.5450   -1.3470    2.4980 ca        1 MOL     -0.156694
    131 C45        -3.9670   -1.0660    3.6300 ca        1 MOL     -0.242761
    132 C46        -5.7880   -2.4410    2.8620 ca        1 MOL     -0.242761
    133 C47        -4.4920   -2.3250    3.3290 ca        1 MOL      0.477920
    134 O20        -3.6730   -3.4270    3.5950 oh        1 MOL     -0.630698
    135 H56        -5.4110    0.2570   -0.3600 hn        1 MOL      0.218287
    136 H57        -7.0420    2.5070    0.6400 h1        1 MOL     -0.020302
    137 H58        -7.8390    0.9310    2.1910 hc        1 MOL      0.093784
    138 H59        -6.7780    2.0120    2.9420 hc        1 MOL      0.093784
    139 H60        -4.3600    1.0280    3.5830 ha        1 MOL      0.129117
    140 H61        -7.4190   -1.4360    1.8680 ha        1 MOL      0.129117
    141 H62        -3.0080   -0.9400    4.1190 ha        1 MOL      0.118998
    142 H63        -6.2480   -3.3890    2.6570 ha        1 MOL      0.118998
    143 H64        -2.7590   -3.1510    3.6110 ho        1 MOL      0.451083
    144 N13        -5.0670    3.6830    1.8360 n         1 MOL     -0.374342
    145 C48        -3.9540    4.5170    2.3300 c3        1 MOL      0.064996
    146 C49        -2.9210    5.0530    1.2910 c         1 MOL      0.433156
    147 O21        -2.2860    6.0590    1.5480 o         1 MOL     -0.507578
    148 C50        -3.2160    3.7740    3.5360 c3        1 MOL     -0.039791
    149 C51        -2.1440    2.8210    2.9960 c3        1 MOL      0.009584
    150 C52        -1.3250    2.2690    4.1090 c         1 MOL      0.596398
    151 O22        -0.1260    2.5040    4.2330 o         1 MOL     -0.670254
    152 O23        -1.9080    1.4270    4.8820 o         1 MOL     -0.670254
    153 H65        -6.0140    3.8930    2.0930 hn        1 MOL      0.269336
    154 H66        -4.3440    5.4600    2.7260 h1        1 MOL      0.047609
    155 H67        -3.9500    3.2050    4.1150 hc        1 MOL      0.022733
    156 H68        -2.7810    4.5070    4.2110 hc        1 MOL      0.022733
    157 H69        -1.4410    3.3010    2.3310 hc        1 MOL      0.046886
    158 H70        -2.6140    1.9700    2.4920 hc        1 MOL      0.046886
    159 N14        -2.6170    4.4320    0.1400 n         1 MOL     -0.606633
    160 C53        -1.6260    4.7970   -0.8460 c3        1 MOL      0.000535
    161 C54        -1.9780    5.9080   -1.8960 c         1 MOL      0.532904
    162 O24        -1.1410    6.3130   -2.7450 o         1 MOL     -0.561911
    163 C55        -1.1170    3.4980   -1.5380 c3        1 MOL     -0.295610
    164 C56        -0.6880    2.3810   -0.5290 c3        1 MOL      0.469413
    165 C57         0.6460    2.7530    0.1700 c         1 MOL      0.496558
    166 O25         0.8030    3.7940    0.8040 o         1 MOL     -0.576658
    167 O26         1.6080    1.9650    0.1470 o         1 MOL     -0.576658
    168 H71        -3.1530    3.5720    0.1360 hn        1 MOL      0.332239
    169 H72        -0.7330    5.1340   -0.3230 h1        1 MOL      0.141178
    170 H73        -0.2530    3.7670   -2.1580 hc        1 MOL      0.074344
    171 H74        -1.8970    3.0500   -2.1490 hc        1 MOL      0.074344
    172 H75        -0.6130    1.4620   -1.1040 hc        1 MOL     -0.131029
    173 H76        -1.4690    2.1720    0.2010 hc        1 MOL     -0.131029
    174 N15        -3.1580    6.4350   -1.8430 n         1 MOL     -0.257429
    175 C58        -3.6710    7.4630   -2.7850 c3        1 MOL     -0.281604
    176 H77        -3.6530    7.0660   -3.8000 h1        1 MOL      0.112983
    177 H78        -4.6950    7.7250   -2.5160 h1        1 MOL      0.112983
    178 H79        -3.0420    8.3510   -2.7330 h1        1 MOL      0.112983
    179 H80        -3.6930    6.2690   -1.0020 hn        1 MOL      0.264569
    180 Ca1         3.7790    2.0370    1.2280 Ca        1 MOL      1.775665
    181 O27         5.4200    0.7560    3.0210 oh        1 MOL     -0.890872
    182 H81         6.3820    0.6730    3.0230 ho        1 MOL      0.424275
    183 H82         5.1530    0.4100    3.8750 ho        1 MOL      0.424275
    184 O28         3.3640    4.5920    1.8730 oh        1 MOL     -0.890872
    185 H83         2.5870    4.7390    1.3230 ho        1 MOL      0.424275
    186 H84         3.8850    5.3870    1.7550 ho        1 MOL      0.424275
    187 O29         2.4920    1.5710    3.5810 oh        1 MOL     -0.890872
    188 H85         1.6390    1.9340    3.8000 ho        1 MOL      0.424275
    189 H86         2.4970    0.7070    3.9870 ho        1 MOL      0.424275
@<TRIPOS>BOND
     1    1    2 1   
     2    1    4 1   
     3    1    5 1   
     4    1    6 1   
     5    2    3 2   
     6    2    7 1   
     7    7    8 1   
     8    7   15 1   
     9    8    9 1   
    10    8   11 1   
    11    8   16 1   
    12    9   10 2   
    13    9   19 1   
    14   11   12 1   
    15   11   17 1   
    16   11   18 1   
    17   12   13 1   
    18   12   14 1   
    19   19   20 1   
    20   19   27 1   
    21   20   21 1   
    22   20   23 1   
    23   20   28 1   
    24   21   22 2   
    25   21   38 1   
    26   23   24 1   
    27   23   25 1   
    28   23   29 1   
    29   24   26 1   
    30   24   30 1   
    31   24   31 1   
    32   25   32 1   
    33   25   33 1   
    34   25   34 1   
    35   26   35 1   
    36   26   36 1   
    37   26   37 1   
    38   38   39 1   
    39   38   46 1   
    40   39   40 1   
    41   39   42 1   
    42   39   47 1   
    43   40   41 2   
    44   40   50 1   
    45   42   43 1   
    46   42   48 1   
    47   42   49 1   
    48   43   44 1   
    49   43   45 1   
    50   50   51 1   
    51   50   54 1   
    52   51   52 1   
    53   51   55 1   
    54   51   56 1   
    55   52   53 2   
    56   52   57 1   
    57   57   58 1   
    58   57   65 1   
    59   58   59 1   
    60   58   61 1   
    61   58   66 1   
    62   59   60 2   
    63   59   69 1   
    64   61   62 1   
    65   61   67 1   
    66   61   68 1   
    67   62   63 1   
    68   62   64 1   
    69   69   70 1   
    70   69   73 1   
    71   70   71 1   
    72   70   74 1   
    73   70   75 1   
    74   71   72 2   
    75   71   76 1   
    76   76   77 1   
    77   76   85 1   
    78   77   78 1   
    79   77   80 1   
    80   77   86 1   
    81   78   79 2   
    82   78   93 1   
    83   80   81 1   
    84   80   87 1   
    85   80   88 1   
    86   81   82 1   
    87   81   89 1   
    88   81   90 1   
    89   82   83 1   
    90   82   84 2   
    91   83   91 1   
    92   83   92 1   
    93   93   94 1   
    94   93  100 1   
    95   94   95 1   
    96   94   97 1   
    97   94  101 1   
    98   95   96 2   
    99   95  109 1   
   100   97   98 1   
   101   97   99 1   
   102   97  102 1   
   103   98  103 1   
   104   98  104 1   
   105   98  105 1   
   106   99  106 1   
   107   99  107 1   
   108   99  108 1   
   109  109  110 1   
   110  109  117 1   
   111  110  111 1   
   112  110  113 1   
   113  110  118 1   
   114  111  112 2   
   115  111  123 1   
   116  113  114 1   
   117  113  119 1   
   118  113  120 1   
   119  114  115 1   
   120  114  116 2   
   121  115  121 1   
   122  115  122 1   
   123  123  124 1   
   124  123  135 1   
   125  124  125 1   
   126  124  127 1   
   127  124  136 1   
   128  125  126 2   
   129  125  144 1   
   130  127  128 1   
   131  127  137 1   
   132  127  138 1   
   133  128  129 ar  
   134  128  130 ar  
   135  129  131 ar  
   136  129  139 1   
   137  130  132 ar  
   138  130  140 1   
   139  131  133 ar  
   140  131  141 1   
   141  132  133 ar  
   142  132  142 1   
   143  133  134 1   
   144  134  143 1   
   145  144  145 1   
   146  144  153 1   
   147  145  146 1   
   148  145  148 1   
   149  145  154 1   
   150  146  147 2   
   151  146  159 1   
   152  148  149 1   
   153  148  155 1   
   154  148  156 1   
   155  149  150 1   
   156  149  157 1   
   157  149  158 1   
   158  150  151 1   
   159  150  152 1   
   160  159  160 1   
   161  159  168 1   
   162  160  161 1   
   163  160  163 1   
   164  160  169 1   
   165  161  162 2   
   166  161  174 1   
   167  163  164 1   
   168  163  170 1   
   169  163  171 1   
   170  164  165 1   
   171  164  172 1   
   172  164  173 1   
   173  165  166 1   
   174  165  167 1   
   175  174  175 1   
   176  174  179 1   
   177  175  176 1   
   178  175  177 1   
   179  175  178 1   
   180  181  182 1   
   181  181  183 1   
   182  184  185 1   
   183  184  186 1   
   184  187  188 1   
   185  187  189 1   
@<TRIPOS>SUBSTRUCTURE
     1 MOL         1 TEMP              0 ****  ****    0 ROOT
