@<TRIPOS>MOLECULE
MOL
  175   173     1     0     0
SMALL
resp


@<TRIPOS>ATOM
      1 C1         -6.6980    7.7620    1.5560 c3        1 MOL     -0.303341
      2 C2         -7.6900    6.9800    0.6780 c         1 MOL      0.632250
      3 O1         -7.7520    7.2250   -0.5580 o         1 MOL     -0.591059
      4 H1         -7.1980    8.0870    2.4690 hc        1 MOL      0.073463
      5 H2         -5.8560    7.1210    1.8140 hc        1 MOL      0.073463
      6 H3         -6.3380    8.6340    1.0100 hc        1 MOL      0.073463
      7 N1         -8.3070    5.9350    1.2030 n         1 MOL     -0.475467
      8 C3         -9.2220    5.0150    0.4180 c3        1 MOL      0.270007
      9 C4         -8.5700    3.8710   -0.3720 c         1 MOL      0.430975
     10 O2         -9.2170    3.1450   -1.0890 o         1 MOL     -0.529849
     11 C5        -10.2750    4.4530    1.3490 c3        1 MOL     -0.328424
     12 C6        -11.7690    4.5440    0.9590 c         1 MOL      0.751742
     13 O3        -12.2020    5.4150    0.2370 o         1 MOL     -0.727366
     14 O4        -12.5080    3.7880    1.6210 o         1 MOL     -0.727366
     15 H4         -8.1690    5.7340    2.1910 hn        1 MOL      0.259690
     16 H5         -9.7080    5.6900   -0.2870 h1        1 MOL      0.042573
     17 H6        -10.1050    4.8900    2.3340 hc        1 MOL      0.044212
     18 H7        -10.0430    3.4040    1.5240 hc        1 MOL      0.044212
     19 N2         -7.2550    3.6580   -0.2440 n         1 MOL     -0.447971
     20 C7         -6.4730    2.7680   -0.9850 c3        1 MOL      0.521506
     21 C8         -5.2950    2.2100   -0.2110 c         1 MOL      0.271005
     22 O5         -4.7940    2.7870    0.7080 o         1 MOL     -0.480721
     23 C9         -6.0090    3.5490   -2.2410 c3        1 MOL     -0.315219
     24 H8         -6.8100    4.2220    0.4620 hn        1 MOL      0.195407
     25 H9         -7.1060    1.9240   -1.2790 h1        1 MOL     -0.055089
     26 H10        -6.8970    3.9640   -2.7180 hc        1 MOL      0.081854
     27 H11        -5.4080    4.4410   -2.0180 hc        1 MOL      0.081854
     28 H12        -5.6040    2.8670   -2.9830 hc        1 MOL      0.081854
     29 N3         -4.7500    1.0390   -0.6110 n         1 MOL     -0.176234
     30 C10        -5.1630    0.0210   -1.4830 c3        1 MOL     -0.216537
     31 C11        -5.4250   -1.2650   -0.7400 c         1 MOL      0.580537
     32 O6         -4.5750   -1.5900    0.0600 o         1 MOL     -0.550846
     33 C12        -4.1170   -0.1940   -2.6850 c3        1 MOL     -0.181352
     34 C13        -2.7500   -0.4960   -2.1680 c         1 MOL      0.664233
     35 O7         -1.9800    0.3860   -1.6890 o         1 MOL     -0.710224
     36 O8         -2.2770   -1.6940   -2.2330 o         1 MOL     -0.710224
     37 H13        -3.9900    0.7500   -0.0110 hn        1 MOL      0.240217
     38 H14        -6.1170    0.2510   -1.9510 h1        1 MOL      0.115891
     39 H15        -4.1230    0.7160   -3.2910 hc        1 MOL      0.056236
     40 H16        -4.4180   -1.0170   -3.3320 hc        1 MOL      0.056236
     41 N4         -6.4410   -2.0460   -1.0350 n         1 MOL     -0.413257
     42 C14        -6.7950   -3.3180   -0.4090 c3        1 MOL     -0.017655
     43 C15        -6.6760   -4.5380   -1.3580 c         1 MOL      0.587945
     44 O9         -7.6440   -5.0200   -1.8580 o         1 MOL     -0.543049
     45 H17        -7.0520   -1.7560   -1.7790 hn        1 MOL      0.298392
     46 H18        -7.7830   -3.4060    0.0500 h1        1 MOL      0.080066
     47 H19        -6.1510   -3.4290    0.4610 h1        1 MOL      0.080066
     48 N5         -5.4420   -5.1370   -1.6760 n         1 MOL     -0.523051
     49 C16        -4.1780   -4.5580   -1.1790 c3        1 MOL     -0.036234
     50 C17        -3.9910   -5.0540    0.2400 c         1 MOL      0.520702
     51 O10        -4.1870   -6.2390    0.4660 o         1 MOL     -0.557326
     52 C18        -3.1180   -5.1860   -2.0960 c3        1 MOL      0.007484
     53 C19        -1.7020   -4.6140   -1.7970 c         1 MOL      0.492659
     54 N6         -0.7590   -4.7710   -2.6850 n         1 MOL     -0.805758
     55 O11        -1.4640   -4.0400   -0.7320 o         1 MOL     -0.486881
     56 H20        -5.3490   -5.9590   -2.2630 hn        1 MOL      0.321373
     57 H21        -4.0920   -3.4740   -1.1630 h1        1 MOL      0.092595
     58 H22        -3.2570   -5.0170   -3.1660 hc        1 MOL      0.027278
     59 H23        -3.1710   -6.2690   -1.9710 hc        1 MOL      0.027278
     60 H24        -0.9680   -5.3290   -3.5020 hn        1 MOL      0.371605
     61 H25         0.1370   -4.3580   -2.4770 hn        1 MOL      0.371605
     62 N7         -3.6870   -4.1620    1.1530 n         1 MOL     -0.204245
     63 C20        -3.5460   -4.4950    2.5770 c3        1 MOL     -0.325733
     64 C21        -2.0910   -4.9340    2.9930 c         1 MOL      0.547547
     65 O12        -1.8200   -5.4370    4.1050 o         1 MOL     -0.577641
     66 H26        -3.6710   -3.1710    0.9470 hn        1 MOL      0.268349
     67 H27        -4.2350   -5.3090    2.8060 h1        1 MOL      0.133066
     68 H28        -3.7570   -3.6010    3.1680 h1        1 MOL      0.133066
     69 N8         -1.0930   -4.7680    2.1140 n         1 MOL     -0.117261
     70 C22         0.3600   -4.9810    2.2920 c3        1 MOL     -0.221475
     71 C23         1.2170   -3.7260    1.8910 c         1 MOL      0.437368
     72 O13         0.7360   -2.8020    1.1840 o         1 MOL     -0.570287
     73 C24         0.8940   -6.2070    1.4130 c3        1 MOL      0.396305
     74 C25         0.1010   -7.4410    1.8890 c3        1 MOL     -0.453435
     75 O14         0.8180   -5.9700   -0.0030 oh        1 MOL     -0.591827
     76 H29        -1.3190   -4.3820    1.2110 hn        1 MOL      0.161956
     77 H30         0.5570   -5.1960    3.3410 h1        1 MOL      0.101917
     78 H31         1.9600   -6.3630    1.5730 h1        1 MOL     -0.021408
     79 H32         1.4650   -5.3570   -0.3510 ho        1 MOL      0.423014
     80 H33         0.5120   -8.4220    1.6290 hc        1 MOL      0.119314
     81 H34        -0.0710   -7.3040    2.9630 hc        1 MOL      0.119314
     82 H35        -0.9010   -7.4630    1.4740 hc        1 MOL      0.119314
     83 N9          2.4190   -3.6150    2.3520 n         1 MOL     -0.235475
     84 C26         3.3420   -2.4800    2.1380 c3        1 MOL      0.055129
     85 C27         4.3220   -2.8790    1.0320 c         1 MOL      0.327092
     86 O15         5.1270   -3.7820    1.2630 o         1 MOL     -0.545611
     87 C28         4.0710   -2.1040    3.4150 c3        1 MOL      0.178911
     88 C29         5.2120   -0.9960    3.3560 c3        1 MOL     -0.111599
     89 C30         3.0630   -1.6520    4.4900 c3        1 MOL     -0.353011
     90 C31         4.7180    0.3710    2.9460 c3        1 MOL     -0.059963
     91 H36         2.7310   -4.2900    3.0380 hn        1 MOL      0.225635
     92 H37         2.8200   -1.5750    1.8510 h1        1 MOL      0.104830
     93 H38         4.5930   -2.9840    3.7920 hc        1 MOL     -0.015504
     94 H39         5.9780   -1.3220    2.6510 hc        1 MOL      0.020193
     95 H40         5.7360   -0.8860    4.3050 hc        1 MOL      0.020193
     96 H41         2.3900   -2.4840    4.6980 hc        1 MOL      0.078055
     97 H42         3.5770   -1.5080    5.4370 hc        1 MOL      0.078055
     98 H43         2.5730   -0.7080    4.2590 hc        1 MOL      0.078055
     99 H44         4.1040    0.2320    2.0460 hc        1 MOL      0.033526
    100 H45         4.1480    0.8300    3.7520 hc        1 MOL      0.033526
    101 H46         5.5560    1.0720    2.8620 hc        1 MOL      0.033526
    102 N10         4.2330   -2.1580   -0.0710 n         1 MOL      0.016665
    103 C32         4.8350   -2.4250   -1.3630 c3        1 MOL      0.062302
    104 C33         5.8820   -1.3840   -1.7160 c         1 MOL      0.455866
    105 O16         6.5970   -1.4990   -2.7750 o         1 MOL     -0.551953
    106 C34         3.7520   -2.6680   -2.4420 c3        1 MOL     -0.227123
    107 C35         2.7290   -3.6930   -2.0250 c         1 MOL      0.697017
    108 O17         3.0660   -4.8630   -1.6450 o         1 MOL     -0.668372
    109 O18         1.5230   -3.3200   -1.9160 o         1 MOL     -0.668372
    110 H47         3.4100   -1.5800   -0.1820 hn        1 MOL     -0.010588
    111 H48         5.4220   -3.3490   -1.2720 h1        1 MOL      0.071049
    112 H49         4.1160   -3.0500   -3.3910 hc        1 MOL      0.059911
    113 H50         3.1960   -1.7370   -2.5600 hc        1 MOL      0.059911
    114 N11         5.9460   -0.2980   -0.9340 n         1 MOL     -0.385896
    115 C36         6.9960    0.8120   -1.0200 c3        1 MOL      0.179023
    116 C37         6.5720    2.1790   -0.5260 c         1 MOL      0.535134
    117 O19         6.1850    2.3130    0.6290 o         1 MOL     -0.537778
    118 C38         8.2940    0.3390   -0.3870 c3        1 MOL     -0.299861
    119 C39         9.3270    1.4570   -0.1900 ca        1 MOL      0.160297
    120 C40         9.3430    2.2140    0.9840 ca        1 MOL     -0.198522
    121 C41        10.2380    1.7380   -1.2020 ca        1 MOL     -0.198522
    122 C42        10.2500    3.2720    1.2030 ca        1 MOL     -0.107515
    123 C43        11.1110    2.8820   -1.0540 ca        1 MOL     -0.107515
    124 C44        11.1250    3.5850    0.1680 ca        1 MOL     -0.097199
    125 H51         5.3610   -0.2430   -0.1110 hn        1 MOL      0.186316
    126 H52         7.2380    0.8890   -2.0840 h1        1 MOL      0.027496
    127 H53         8.6830   -0.5020   -0.9580 hc        1 MOL      0.116032
    128 H54         8.0600   -0.0850    0.5910 hc        1 MOL      0.116032
    129 H55         8.7570    1.9010    1.8390 ha        1 MOL      0.137769
    130 H56        10.1740    1.2570   -2.1610 ha        1 MOL      0.137769
    131 H57        10.3520    3.7100    2.1880 ha        1 MOL      0.110437
    132 H58        11.7550    3.2410   -1.8420 ha        1 MOL      0.110437
    133 H59        11.8210    4.3930    0.3390 ha        1 MOL      0.090986
    134 N12         6.6220    3.2820   -1.3220 n         1 MOL     -0.286259
    135 C45         6.3750    4.6240   -0.7400 c3        1 MOL      0.126298
    136 C46         4.9440    5.0660   -0.3930 c         1 MOL      0.292606
    137 O20         4.6780    6.1810   -0.0180 o         1 MOL     -0.497550
    138 C47         7.0960    5.6100   -1.6890 c3        1 MOL     -0.132156
    139 C48         8.0730    4.7980   -2.5260 c3        1 MOL      0.025320
    140 C49         7.4290    3.4030   -2.4980 c3        1 MOL      0.204654
    141 H60         6.9090    4.8280    0.1890 h1        1 MOL      0.085082
    142 H61         6.4580    6.1930   -2.3620 hc        1 MOL      0.054600
    143 H62         7.6140    6.3560   -1.0910 hc        1 MOL      0.054600
    144 H63         8.1940    5.1450   -3.5510 hc        1 MOL     -0.003598
    145 H64         9.0350    4.7370   -2.0280 hc        1 MOL     -0.003598
    146 H65         6.8420    3.1260   -3.3760 h1        1 MOL     -0.020099
    147 H66         8.3140    2.7650   -2.5140 h1        1 MOL     -0.020099
    148 N13         3.9960    4.1280   -0.5030 n         1 MOL     -0.155117
    149 C50         2.6660    4.3210   -0.0010 c3        1 MOL     -0.044329
    150 C51         2.5300    4.7480    1.4590 c         1 MOL      0.508678
    151 O21         1.5430    5.3770    1.8410 o         1 MOL     -0.531226
    152 C52         1.7870    3.0810   -0.1910 c3        1 MOL     -0.169389
    153 C53         2.3910    1.8310    0.4880 c3        1 MOL      0.131593
    154 C54         1.5170    0.6330    0.2770 c         1 MOL      0.578919
    155 O22         0.3110    0.6270    0.5080 o         1 MOL     -0.649169
    156 O23         2.0690   -0.3880   -0.2640 o         1 MOL     -0.649169
    157 H67         4.3480    3.2580   -0.8800 hn        1 MOL      0.121404
    158 H68         2.2100    5.1580   -0.5300 h1        1 MOL      0.091671
    159 H69         1.7190    2.9250   -1.2730 hc        1 MOL      0.080547
    160 H70         0.8060    3.2980    0.2180 hc        1 MOL      0.080547
    161 H71         2.4370    1.9460    1.5750 hc        1 MOL     -0.039392
    162 H72         3.3320    1.7140   -0.0440 hc        1 MOL     -0.039392
    163 N14         3.4850    4.3010    2.3530 n         1 MOL     -0.191053
    164 C55         3.5900    4.8080    3.7400 c3        1 MOL     -0.128035
    165 H73         2.6260    5.2090    4.0540 h1        1 MOL      0.073067
    166 H74         3.8770    3.9920    4.4040 h1        1 MOL      0.073067
    167 H75         4.3430    5.5950    3.7840 h1        1 MOL      0.073067
    168 H76         4.2050    3.7900    1.8570 hn        1 MOL      0.157539
    169 Ca1        -0.1220   -1.4860   -0.9730 Ca        1 MOL      1.741398
    170 O24        -2.1390   -1.3500    0.9160 oh        1 MOL     -0.908786
    171 H77        -2.0410   -0.4810    1.3010 ho        1 MOL      0.429277
    172 H78        -3.0670   -1.4330    0.7300 ho        1 MOL      0.429277
    173 O25         0.5730   -0.7470   -3.4110 oh        1 MOL     -0.908786
    174 H79         1.1250   -1.1800   -4.0570 ho        1 MOL      0.429277
    175 H80        -0.0590   -0.2580   -3.9390 ho        1 MOL      0.429277
@<TRIPOS>BOND
     1    1    2 1   
     2    1    4 1   
     3    1    5 1   
     4    1    6 1   
     5    2    3 2   
     6    2    7 1   
     7    7    8 1   
     8    7   15 1   
     9    8    9 1   
    10    8   11 1   
    11    8   16 1   
    12    9   10 2   
    13    9   19 1   
    14   11   12 1   
    15   11   17 1   
    16   11   18 1   
    17   12   13 1   
    18   12   14 1   
    19   19   20 1   
    20   19   24 1   
    21   20   21 1   
    22   20   23 1   
    23   20   25 1   
    24   21   22 2   
    25   21   29 1   
    26   23   26 1   
    27   23   27 1   
    28   23   28 1   
    29   29   30 1   
    30   29   37 1   
    31   30   31 1   
    32   30   33 1   
    33   30   38 1   
    34   31   32 2   
    35   31   41 1   
    36   33   34 1   
    37   33   39 1   
    38   33   40 1   
    39   34   35 1   
    40   34   36 1   
    41   41   42 1   
    42   41   45 1   
    43   42   43 1   
    44   42   46 1   
    45   42   47 1   
    46   43   44 2   
    47   43   48 1   
    48   48   49 1   
    49   48   56 1   
    50   49   50 1   
    51   49   52 1   
    52   49   57 1   
    53   50   51 2   
    54   50   62 1   
    55   52   53 1   
    56   52   58 1   
    57   52   59 1   
    58   53   54 1   
    59   53   55 2   
    60   54   60 1   
    61   54   61 1   
    62   62   63 1   
    63   62   66 1   
    64   63   64 1   
    65   63   67 1   
    66   63   68 1   
    67   64   65 2   
    68   64   69 1   
    69   69   70 1   
    70   69   76 1   
    71   70   71 1   
    72   70   73 1   
    73   70   77 1   
    74   71   72 2   
    75   71   83 1   
    76   73   74 1   
    77   73   75 1   
    78   73   78 1   
    79   74   80 1   
    80   74   81 1   
    81   74   82 1   
    82   75   79 1   
    83   83   84 1   
    84   83   91 1   
    85   84   85 1   
    86   84   87 1   
    87   84   92 1   
    88   85   86 2   
    89   85  102 1   
    90   87   88 1   
    91   87   89 1   
    92   87   93 1   
    93   88   90 1   
    94   88   94 1   
    95   88   95 1   
    96   89   96 1   
    97   89   97 1   
    98   89   98 1   
    99   90   99 1   
   100   90  100 1   
   101   90  101 1   
   102  102  103 1   
   103  102  110 1   
   104  103  104 1   
   105  103  106 1   
   106  103  111 1   
   107  104  105 2   
   108  104  114 1   
   109  106  107 1   
   110  106  112 1   
   111  106  113 1   
   112  107  108 1   
   113  107  109 1   
   114  114  115 1   
   115  114  125 1   
   116  115  116 1   
   117  115  118 1   
   118  115  126 1   
   119  116  117 2   
   120  116  134 1   
   121  118  119 1   
   122  118  127 1   
   123  118  128 1   
   124  119  120 ar  
   125  119  121 ar  
   126  120  122 ar  
   127  120  129 1   
   128  121  123 ar  
   129  121  130 1   
   130  122  124 ar  
   131  122  131 1   
   132  123  124 ar  
   133  123  132 1   
   134  124  133 1   
   135  134  135 1   
   136  134  140 1   
   137  135  136 1   
   138  135  138 1   
   139  135  141 1   
   140  136  137 2   
   141  136  148 1   
   142  138  139 1   
   143  138  142 1   
   144  138  143 1   
   145  139  140 1   
   146  139  144 1   
   147  139  145 1   
   148  140  146 1   
   149  140  147 1   
   150  148  149 1   
   151  148  157 1   
   152  149  150 1   
   153  149  152 1   
   154  149  158 1   
   155  150  151 2   
   156  150  163 1   
   157  152  153 1   
   158  152  159 1   
   159  152  160 1   
   160  153  154 1   
   161  153  161 1   
   162  153  162 1   
   163  154  155 1   
   164  154  156 1   
   165  163  164 1   
   166  163  168 1   
   167  164  165 1   
   168  164  166 1   
   169  164  167 1   
   170  170  171 1   
   171  170  172 1   
   172  173  174 1   
   173  173  175 1   
@<TRIPOS>SUBSTRUCTURE
     1 MOL         1 TEMP              0 ****  ****    0 ROOT
