@<TRIPOS>MOLECULE
MOL
  182   178     1     0     0
SMALL
resp


@<TRIPOS>ATOM
      1 C1         -3.0700   -4.2300    5.6310 c3        1 MOL     -0.378687
      2 C2         -2.9020   -3.4230    4.3330 c         1 MOL      0.747907
      3 O1         -3.8080   -3.4570    3.5050 o         1 MOL     -0.572665
      4 H1         -2.1530   -4.1690    6.2180 hc        1 MOL      0.100871
      5 H2         -3.8990   -3.8210    6.2090 hc        1 MOL      0.100871
      6 H3         -3.2760   -5.2720    5.3880 hc        1 MOL      0.100871
      7 N1         -1.6370   -3.0030    4.0500 n         1 MOL     -0.557891
      8 C3         -1.0710   -2.8070    2.6700 c3        1 MOL      0.121346
      9 C4         -1.1020   -4.1110    1.8420 c         1 MOL      0.607527
     10 O2         -0.5910   -5.1630    2.1600 o         1 MOL     -0.561322
     11 C5          0.3420   -2.3200    2.8230 c3        1 MOL     -0.273609
     12 C6          1.2410   -2.0540    1.6380 c         1 MOL      1.010230
     13 O3          2.3430   -1.4810    1.7830 o         1 MOL     -0.823660
     14 O4          0.8310   -2.3600    0.4920 o         1 MOL     -0.823660
     15 H4         -0.9140   -3.3080    4.6930 hn        1 MOL      0.291483
     16 H5         -1.5780   -2.0270    2.0990 h1        1 MOL     -0.039028
     17 H6          0.9200   -3.0110    3.4360 hc        1 MOL      0.060844
     18 H7          0.1860   -1.3420    3.2770 hc        1 MOL      0.060844
     19 N2         -1.6780   -4.0290    0.6390 n         1 MOL     -0.445661
     20 C7         -1.8430   -5.1480   -0.3420 c3        1 MOL      0.086095
     21 C8         -0.5360   -5.6270   -1.0430 c         1 MOL      0.576960
     22 O5         -0.5730   -6.7040   -1.6260 o         1 MOL     -0.589519
     23 C9         -2.9100   -4.6580   -1.3630 c3        1 MOL     -0.034797
     24 C10        -3.5830   -5.7290   -2.2860 c3        1 MOL     -0.053103
     25 C11        -4.2010   -6.8130   -1.4540 c3        1 MOL      0.190462
     26 C12        -5.3200   -7.4660   -2.1990 c3        1 MOL     -0.175020
     27 N3         -4.8150   -8.3730   -3.3430 n4        1 MOL     -0.242715
     28 H8         -2.1030   -3.1610    0.3700 hn        1 MOL      0.246256
     29 H9         -2.2060   -6.0330    0.1840 h1        1 MOL      0.047018
     30 H10        -2.5030   -3.8690   -2.0060 hc        1 MOL      0.027326
     31 H11        -3.7360   -4.2250   -0.7940 hc        1 MOL      0.027326
     32 H12        -2.8810   -6.0490   -3.0660 hc        1 MOL      0.018645
     33 H13        -4.3890   -5.1830   -2.7760 hc        1 MOL      0.018645
     34 H14        -4.6210   -6.4790   -0.5110 hc        1 MOL      0.015636
     35 H15        -3.4130   -7.5260   -1.1990 hc        1 MOL      0.015636
     36 H16        -5.8870   -6.6300   -2.6060 hx        1 MOL      0.124621
     37 H17        -5.8260   -8.0350   -1.4250 hx        1 MOL      0.124621
     38 H18        -4.3850   -7.8220   -4.0720 hn        1 MOL      0.270723
     39 H19        -4.2510   -9.1770   -3.0740 hn        1 MOL      0.270723
     40 H20        -5.5950   -8.8400   -3.7760 hn        1 MOL      0.270723
     41 N4          0.5340   -4.8180   -1.0940 n         1 MOL     -0.388381
     42 C13         1.7300   -5.1920   -1.7720 c3        1 MOL      0.138964
     43 C14         2.9990   -5.3550   -0.8350 c         1 MOL      0.268359
     44 O6          4.0450   -5.9350   -1.1850 o         1 MOL     -0.524447
     45 C15         2.0730   -4.1200   -2.7880 c3        1 MOL     -0.287896
     46 C16         2.0580   -2.7230   -2.2870 c         1 MOL      0.893418
     47 O7          3.0350   -2.3060   -1.7120 o         1 MOL     -0.792615
     48 O8          1.1770   -1.9280   -2.7110 o         1 MOL     -0.792615
     49 H21         0.4840   -3.9420   -0.5870 hn        1 MOL      0.181568
     50 H22         1.6410   -6.1160   -2.3320 h1        1 MOL      0.102241
     51 H23         1.2210   -4.1660   -3.4800 hc        1 MOL      0.070843
     52 H24         2.9690   -4.3920   -3.3520 hc        1 MOL      0.070843
     53 N5          3.0420   -4.7890    0.3850 n         1 MOL      0.012201
     54 C17         4.2180   -4.8780    1.2990 c3        1 MOL     -0.431782
     55 C18         5.2370   -3.7600    1.0370 c         1 MOL      0.741444
     56 O9          6.3440   -3.8630    1.5840 o         1 MOL     -0.629511
     57 H25         2.1820   -4.3450    0.6750 hn        1 MOL      0.096095
     58 H26         4.7290   -5.8180    1.1420 h1        1 MOL      0.177058
     59 H27         3.7990   -4.7380    2.2870 h1        1 MOL      0.177058
     60 N6          5.0650   -2.8260    0.1560 n         1 MOL     -0.531747
     61 C19         6.1100   -2.0190   -0.5010 c3        1 MOL      0.269050
     62 C20         5.7590   -0.5240   -0.6180 c         1 MOL      0.359087
     63 O10         4.5650   -0.2210   -0.6040 o         1 MOL     -0.386744
     64 C21         6.2870   -2.6210   -1.8610 c3        1 MOL     -0.182523
     65 C22         7.2950   -1.9610   -2.7850 c         1 MOL      0.603443
     66 N7          8.4890   -2.4610   -2.8590 n         1 MOL     -0.793463
     67 O11         7.0760   -0.9790   -3.5050 o         1 MOL     -0.579445
     68 H28         4.2490   -2.8800   -0.4260 hn        1 MOL      0.352129
     69 H29         7.0750   -2.0140    0.0020 h1        1 MOL     -0.004831
     70 H30         5.3220   -2.5620   -2.3750 hc        1 MOL      0.088985
     71 H31         6.5290   -3.6640   -1.6470 hc        1 MOL      0.088985
     72 H32         8.8990   -3.1610   -2.2510 hn        1 MOL      0.370132
     73 H33         8.9910   -2.0360   -3.6250 hn        1 MOL      0.370132
     74 N8          6.7280    0.3770   -0.7020 n         1 MOL     -0.332132
     75 C23         6.6090    1.8160   -0.9580 c3        1 MOL     -0.089631
     76 C24         5.7960    2.5630    0.1560 c         1 MOL      0.546597
     77 O12         5.8970    2.0890    1.3070 o         1 MOL     -0.490860
     78 H34         7.6760    0.0150   -0.6860 hn        1 MOL      0.283103
     79 H35         5.9820    1.9260   -1.8430 h1        1 MOL      0.086199
     80 H36         7.5950    2.2540   -1.1220 h1        1 MOL      0.086199
     81 N9          5.0280    3.5870   -0.2130 n         1 MOL     -0.585641
     82 C25         3.8870    4.1180    0.5510 c3        1 MOL      0.497843
     83 C26         2.9450    3.0920    1.1070 c         1 MOL      0.435548
     84 O13         2.9460    2.0140    0.5680 o         1 MOL     -0.569944
     85 C27         3.1310    5.2220   -0.2510 c3        1 MOL     -0.213851
     86 C28         4.0780    6.3440   -0.7410 ca        1 MOL      0.096660
     87 C29         5.0700    6.9440    0.1040 ca        1 MOL     -0.204075
     88 C30         3.9790    6.6840   -2.1180 ca        1 MOL     -0.204075
     89 C31         5.9650    7.8240   -0.4680 ca        1 MOL     -0.197307
     90 C32         4.8980    7.5880   -2.6590 ca        1 MOL     -0.197307
     91 C33         5.8700    8.1720   -1.8410 ca        1 MOL      0.263983
     92 O14         6.5990    9.1950   -2.2980 oh        1 MOL     -0.440433
     93 H37         4.9320    3.8250   -1.1910 hn        1 MOL      0.282722
     94 H38         4.2610    4.6740    1.4170 h1        1 MOL     -0.036325
     95 H39         2.3090    5.6810    0.3030 hc        1 MOL      0.047450
     96 H40         2.7060    4.6260   -1.0500 hc        1 MOL      0.047450
     97 H41         5.1700    6.7530    1.1550 ha        1 MOL      0.148697
     98 H42         3.2860    6.2080   -2.8030 ha        1 MOL      0.148697
     99 H43         6.7950    8.3690   -0.0330 ha        1 MOL      0.139517
    100 H44         4.7060    7.9270   -3.6680 ha        1 MOL      0.139517
    101 H45         6.3070    9.4870   -3.1600 ho        1 MOL      0.353244
    102 N10         2.3320    3.3450    2.2440 n         1 MOL     -0.629272
    103 C34         1.4790    2.5250    3.0490 c3        1 MOL      0.276018
    104 C35         0.3300    1.7720    2.2960 c         1 MOL      0.532789
    105 O15         0.5070    1.0170    1.3920 o         1 MOL     -0.456627
    106 C36         2.2110    1.4760    3.8740 c3        1 MOL      0.162812
    107 C37         1.3640    1.0730    5.1360 c3        1 MOL     -0.050047
    108 C38         3.5260    1.9220    4.5000 c3        1 MOL     -0.217713
    109 C39         1.7310   -0.1990    5.9330 c3        1 MOL     -0.077509
    110 H46         2.6430    4.2140    2.6430 hn        1 MOL      0.301640
    111 H47         0.9680    3.2620    3.6690 h1        1 MOL     -0.004559
    112 H48         2.4220    0.5930    3.2790 hc        1 MOL      0.077571
    113 H49         0.3380    0.9170    4.8150 hc        1 MOL     -0.020602
    114 H50         1.4160    1.9030    5.8370 hc        1 MOL     -0.020602
    115 H51         3.9680    1.1300    5.1100 hc        1 MOL      0.051763
    116 H52         4.3460    2.1610    3.8160 hc        1 MOL      0.051763
    117 H53         3.4350    2.8040    5.1410 hc        1 MOL      0.051763
    118 H54         2.7780   -0.2240    6.2220 hc        1 MOL      0.026748
    119 H55         1.1560   -0.3760    6.8460 hc        1 MOL      0.026748
    120 H56         1.6590   -1.0910    5.3170 hc        1 MOL      0.026748
    121 N11        -0.9160    1.8960    2.8310 n         1 MOL     -0.652134
    122 C40        -2.1800    1.1710    2.5130 c3        1 MOL      0.123924
    123 C41        -2.9010    1.6190    1.2490 c         1 MOL      0.334185
    124 O16        -3.9290    1.0150    0.9490 o         1 MOL     -0.527650
    125 C42        -3.0580    1.0840    3.7370 c3        1 MOL      0.275978
    126 O17        -2.4260    0.8300    4.9620 oh        1 MOL     -0.607856
    127 H57        -0.9210    2.3380    3.7320 hn        1 MOL      0.249755
    128 H58        -1.7990    0.1970    2.2040 h1        1 MOL      0.168288
    129 H59        -3.7540    0.2950    3.4520 h1        1 MOL      0.027103
    130 H60        -3.7120    1.9570    3.7610 h1        1 MOL      0.027103
    131 H61        -2.1460    1.6840    5.3120 ho        1 MOL      0.395286
    132 N12        -2.4790    2.6940    0.5450 n         1 MOL     -0.228936
    133 C43        -3.1980    3.1200   -0.6890 c3        1 MOL     -0.056696
    134 C44        -2.8740    2.2670   -1.9380 c         1 MOL      0.671505
    135 O18        -1.7780    2.2530   -2.3540 o         1 MOL     -0.615587
    136 C45        -2.9360    4.6220   -0.8910 c3        1 MOL     -0.269348
    137 H62        -1.7090    3.2750    0.8200 hn        1 MOL      0.235493
    138 H63        -4.2500    2.9590   -0.4430 h1        1 MOL      0.134433
    139 H64        -1.8940    4.9170   -0.9710 hc        1 MOL      0.091807
    140 H65        -3.4140    5.0290   -1.7800 hc        1 MOL      0.091807
    141 H66        -3.3390    5.1630   -0.0330 hc        1 MOL      0.091807
    142 N13        -3.7690    1.4520   -2.4990 n         1 MOL     -0.569757
    143 C46        -5.2010    1.3730   -2.2780 c3        1 MOL     -0.101447
    144 C47        -6.0400    2.6600   -2.4350 c         1 MOL      1.010371
    145 O19        -6.0010    3.2090   -3.5100 o         1 MOL     -0.607972
    146 C48        -5.7310    0.2240   -3.2150 c3        1 MOL     -0.231485
    147 H67        -3.3770    1.0530   -3.3370 hn        1 MOL      0.356685
    148 H68        -5.1850    0.8940   -1.3000 h1        1 MOL      0.167328
    149 H69        -6.7050   -0.1230   -2.8620 hc        1 MOL      0.080615
    150 H70        -5.8060    0.5070   -4.2610 hc        1 MOL      0.080615
    151 H71        -5.0260   -0.6130   -3.2940 hc        1 MOL      0.080615
    152 N14        -6.7230    3.2190   -1.4580 n         1 MOL     -0.894315
    153 C49        -7.0660    2.5780   -0.1340 c3        1 MOL     -0.153032
    154 C50        -7.3600    3.5640    1.0140 c         1 MOL      0.643725
    155 O20        -7.1430    3.1610    2.1440 o         1 MOL     -0.545257
    156 C51        -8.3130    1.5930   -0.2650 c3        1 MOL      0.008592
    157 C52        -9.5230    2.3740   -0.8380 c3        1 MOL     -0.079633
    158 C53        -9.7000    2.1060   -2.3460 c         1 MOL      0.654804
    159 O21        -9.6360    3.1360   -3.1290 o         1 MOL     -0.668576
    160 O22        -9.8750    0.9210   -2.7130 o         1 MOL     -0.668576
    161 H72        -7.1690    4.0960   -1.6810 hn        1 MOL      0.375330
    162 H73        -6.1710    2.0350    0.1810 h1        1 MOL      0.100953
    163 H74        -8.6150    1.1180    0.6740 hc        1 MOL      0.032059
    164 H75        -7.9800    0.7930   -0.9290 hc        1 MOL      0.032059
    165 H76        -9.4680    3.4330   -0.6150 hc        1 MOL      0.003497
    166 H77       -10.4910    2.1460   -0.3820 hc        1 MOL      0.003497
    167 N15        -7.7890    4.8210    0.7290 n         1 MOL     -0.342510
    168 C54        -8.1520    5.7630    1.7230 c3        1 MOL     -0.193474
    169 H78        -9.2360    5.8840    1.7300 h1        1 MOL      0.091540
    170 H79        -7.8200    5.4090    2.6990 h1        1 MOL      0.091540
    171 H80        -7.6820    6.7220    1.5050 h1        1 MOL      0.091540
    172 H81        -7.8300    5.1830   -0.2120 hn        1 MOL      0.306929
    173 Ca1         1.8090   -0.3070   -0.6680 Ca        1 MOL      1.699311
    174 O23         0.6740    2.1340   -1.1400 oh        1 MOL     -0.813568
    175 H82         1.0880    2.8110   -1.6680 ho        1 MOL      0.400780
    176 H83        -0.2540    2.1680   -1.3720 ho        1 MOL      0.400780
    177 O24         2.9670    0.4810   -3.0940 oh        1 MOL     -0.813568
    178 H84         2.2320    0.6030   -3.7040 ho        1 MOL      0.400780
    179 H85         3.5030   -0.2040   -3.5070 ho        1 MOL      0.400780
    180 O25        -0.9210   -0.5550   -0.8720 oh        1 MOL     -0.813568
    181 H86        -1.6330   -0.8340   -0.3010 ho        1 MOL      0.400780
    182 H87        -1.2340   -0.7310   -1.7640 ho        1 MOL      0.400780
@<TRIPOS>BOND
     1    1    2 1   
     2    1    4 1   
     3    1    5 1   
     4    1    6 1   
     5    2    3 2   
     6    2    7 1   
     7    7    8 1   
     8    7   15 1   
     9    8    9 1   
    10    8   11 1   
    11    8   16 1   
    12    9   10 2   
    13    9   19 1   
    14   11   12 1   
    15   11   17 1   
    16   11   18 1   
    17   12   13 1   
    18   12   14 1   
    19   19   20 1   
    20   19   28 1   
    21   20   21 1   
    22   20   23 1   
    23   20   29 1   
    24   21   22 2   
    25   21   41 1   
    26   23   24 1   
    27   23   30 1   
    28   23   31 1   
    29   24   25 1   
    30   24   32 1   
    31   24   33 1   
    32   25   26 1   
    33   25   34 1   
    34   25   35 1   
    35   26   27 1   
    36   26   36 1   
    37   26   37 1   
    38   27   38 1   
    39   27   39 1   
    40   27   40 1   
    41   41   42 1   
    42   41   49 1   
    43   42   43 1   
    44   42   45 1   
    45   42   50 1   
    46   43   44 2   
    47   43   53 1   
    48   45   46 1   
    49   45   51 1   
    50   45   52 1   
    51   46   47 1   
    52   46   48 1   
    53   53   54 1   
    54   53   57 1   
    55   54   55 1   
    56   54   58 1   
    57   54   59 1   
    58   55   56 2   
    59   55   60 1   
    60   60   61 1   
    61   60   68 1   
    62   61   62 1   
    63   61   64 1   
    64   61   69 1   
    65   62   63 2   
    66   62   74 1   
    67   64   65 1   
    68   64   70 1   
    69   64   71 1   
    70   65   66 1   
    71   65   67 2   
    72   66   72 1   
    73   66   73 1   
    74   74   75 1   
    75   74   78 1   
    76   75   76 1   
    77   75   79 1   
    78   75   80 1   
    79   76   77 2   
    80   76   81 1   
    81   81   82 1   
    82   81   93 1   
    83   82   83 1   
    84   82   85 1   
    85   82   94 1   
    86   83   84 2   
    87   83  102 1   
    88   85   86 1   
    89   85   95 1   
    90   85   96 1   
    91   86   87 ar  
    92   86   88 ar  
    93   87   89 ar  
    94   87   97 1   
    95   88   90 ar  
    96   88   98 1   
    97   89   91 ar  
    98   89   99 1   
    99   90   91 ar  
   100   90  100 1   
   101   91   92 1   
   102   92  101 1   
   103  102  103 1   
   104  102  110 1   
   105  103  104 1   
   106  103  106 1   
   107  103  111 1   
   108  104  105 2   
   109  104  121 1   
   110  106  107 1   
   111  106  108 1   
   112  106  112 1   
   113  107  109 1   
   114  107  113 1   
   115  107  114 1   
   116  108  115 1   
   117  108  116 1   
   118  108  117 1   
   119  109  118 1   
   120  109  119 1   
   121  109  120 1   
   122  121  122 1   
   123  121  127 1   
   124  122  123 1   
   125  122  125 1   
   126  122  128 1   
   127  123  124 2   
   128  123  132 1   
   129  125  126 1   
   130  125  129 1   
   131  125  130 1   
   132  126  131 1   
   133  132  133 1   
   134  132  137 1   
   135  133  134 1   
   136  133  136 1   
   137  133  138 1   
   138  134  135 2   
   139  134  142 1   
   140  136  139 1   
   141  136  140 1   
   142  136  141 1   
   143  142  143 1   
   144  142  147 1   
   145  143  144 1   
   146  143  146 1   
   147  143  148 1   
   148  144  145 2   
   149  144  152 1   
   150  146  149 1   
   151  146  150 1   
   152  146  151 1   
   153  152  153 1   
   154  152  161 1   
   155  153  154 1   
   156  153  156 1   
   157  153  162 1   
   158  154  155 2   
   159  154  167 1   
   160  156  157 1   
   161  156  163 1   
   162  156  164 1   
   163  157  158 1   
   164  157  165 1   
   165  157  166 1   
   166  158  159 1   
   167  158  160 1   
   168  167  168 1   
   169  167  172 1   
   170  168  169 1   
   171  168  170 1   
   172  168  171 1   
   173  174  175 1   
   174  174  176 1   
   175  177  178 1   
   176  177  179 1   
   177  180  181 1   
   178  180  182 1   
@<TRIPOS>SUBSTRUCTURE
     1 MOL         1 TEMP              0 ****  ****    0 ROOT
