@<TRIPOS>MOLECULE
MOL
  185   180     1     0     0
SMALL
resp


@<TRIPOS>ATOM
      1 C1          5.5750    0.3930    6.3960 c3        1 MOL     -0.483965
      2 C2          4.7740    0.5070    5.0640 c         1 MOL      0.666284
      3 O1          3.5490    0.4620    5.0460 o         1 MOL     -0.603300
      4 H1          5.2920    1.2100    7.0600 hc        1 MOL      0.126300
      5 H2          5.3490   -0.5590    6.8750 hc        1 MOL      0.126300
      6 H3          6.6430    0.4490    6.1850 hc        1 MOL      0.126300
      7 N1          5.4510    0.6050    3.9540 n         1 MOL     -0.451718
      8 C3          4.8970    0.9420    2.6300 c3        1 MOL      0.016051
      9 C4          4.2620   -0.2930    1.9570 c         1 MOL      0.457657
     10 O2          3.2230   -0.1320    1.3220 o         1 MOL     -0.556371
     11 C5          6.0150    1.6510    1.7480 c3        1 MOL     -0.183059
     12 C6          7.3910    1.1300    1.9320 c         1 MOL      0.655014
     13 O3          7.5460   -0.0750    1.7570 o         1 MOL     -0.643598
     14 O4          8.4000    1.9110    2.1060 o         1 MOL     -0.643598
     15 H4          6.4610    0.7260    4.0070 hn        1 MOL      0.275350
     16 H5          4.0750    1.6340    2.8090 h1        1 MOL      0.123023
     17 H6          6.0270    2.7430    1.7130 hc        1 MOL      0.067276
     18 H7          5.7460    1.5270    0.6970 hc        1 MOL      0.067276
     19 N2          4.9080   -1.4600    2.0790 n         1 MOL     -0.337254
     20 C7          4.4210   -2.8260    1.7200 c3        1 MOL      0.006809
     21 C8          4.6270   -3.1150    0.2680 c         1 MOL      0.639724
     22 O5          5.7090   -3.0810   -0.3140 o         1 MOL     -0.522808
     23 C9          5.1370   -3.8580    2.6110 c3        1 MOL     -0.022647
     24 C10         4.5640   -5.2490    2.4330 c3        1 MOL     -0.056813
     25 C11         5.3970   -6.2090    3.2780 c3        1 MOL     -0.028945
     26 C12         4.7730   -7.5840    3.1810 c3        1 MOL      0.223800
     27 N3          5.5100   -8.5090    4.0680 n4        1 MOL     -0.382633
     28 H8          5.8180   -1.4610    2.5050 hn        1 MOL      0.217949
     29 H9          3.3390   -2.8200    1.8520 h1        1 MOL      0.109092
     30 H10         4.9880   -3.5350    3.6360 hc        1 MOL      0.041457
     31 H11         6.1900   -3.9240    2.3460 hc        1 MOL      0.041457
     32 H12         4.6100   -5.5260    1.3750 hc        1 MOL      0.033420
     33 H13         3.5580   -5.1730    2.8540 hc        1 MOL      0.033420
     34 H14         5.4010   -5.9370    4.3350 hc        1 MOL      0.027284
     35 H15         6.4090   -6.3490    2.8960 hc        1 MOL      0.027284
     36 H16         4.7340   -7.9330    2.1440 hx        1 MOL      0.029142
     37 H17         3.7270   -7.4960    3.4400 hx        1 MOL      0.029142
     38 H18         5.5340   -8.1540    5.0200 hn        1 MOL      0.286629
     39 H19         5.0030   -9.3720    4.1730 hn        1 MOL      0.286629
     40 H20         6.4640   -8.6760    3.7720 hn        1 MOL      0.286629
     41 N4          3.5240   -3.4940   -0.3730 n         1 MOL     -0.468702
     42 C13         3.5280   -3.8190   -1.7740 c3        1 MOL      0.083398
     43 C14         4.0750   -2.6300   -2.6460 c         1 MOL      0.542897
     44 O6          3.7790   -1.4600   -2.4410 o         1 MOL     -0.493995
     45 C15         2.1050   -4.1700   -2.2400 c3        1 MOL     -0.358710
     46 C16         1.0120   -3.1360   -1.8340 c         1 MOL      0.734777
     47 O7          0.7010   -2.1650   -2.5850 o         1 MOL     -0.712268
     48 O8          0.6670   -3.0380   -0.6570 o         1 MOL     -0.712268
     49 H21         2.6650   -3.4510    0.1540 hn        1 MOL      0.219688
     50 H22         4.2440   -4.6240   -1.9280 h1        1 MOL      0.044331
     51 H23         1.8860   -5.0820   -1.6900 hc        1 MOL      0.095688
     52 H24         2.1020   -4.3080   -3.3240 hc        1 MOL      0.095688
     53 N5          4.7620   -2.9620   -3.7330 n         1 MOL     -0.380278
     54 C17         5.3100   -1.9330   -4.6540 c3        1 MOL      0.059124
     55 C18         6.7120   -1.4250   -4.1970 c         1 MOL      0.489687
     56 O9          7.6450   -2.2850   -4.0280 o         1 MOL     -0.537068
     57 H25         4.9920   -3.9260   -3.9220 hn        1 MOL      0.284501
     58 H26         4.5940   -1.1440   -4.8710 h1        1 MOL      0.024261
     59 H27         5.5970   -2.4460   -5.5710 h1        1 MOL      0.024261
     60 N6          6.9470   -0.1400   -3.8340 n         1 MOL     -0.419057
     61 C19         5.9150    0.9070   -3.6410 c3        1 MOL      0.119232
     62 C20         6.2590    1.9610   -2.5810 c         1 MOL      0.516511
     63 O10         7.3470    2.4840   -2.7140 o         1 MOL     -0.505163
     64 C21         5.5910    1.5570   -5.0260 c3        1 MOL     -0.271427
     65 C22         4.9410    2.9620   -4.9580 c         1 MOL      0.645144
     66 N7          3.6770    2.9470   -4.6370 n         1 MOL     -0.783154
     67 O11         5.5960    3.9530   -5.2130 o         1 MOL     -0.530708
     68 H28         7.8420    0.2110   -3.5370 hn        1 MOL      0.313042
     69 H29         4.9850    0.4040   -3.4050 h1        1 MOL      0.084401
     70 H30         4.8640    0.9560   -5.5810 hc        1 MOL      0.071774
     71 H31         6.4200    1.4860   -5.7350 hc        1 MOL      0.071774
     72 H32         3.1770    2.0750   -4.5720 hn        1 MOL      0.359999
     73 H33         3.2510    3.8600   -4.5840 hn        1 MOL      0.359999
     74 N8          5.3470    2.3910   -1.6970 n         1 MOL     -0.356644
     75 C23         4.0840    1.8560   -1.3180 c3        1 MOL     -0.007164
     76 C24         3.3110    2.8180   -0.3800 c         1 MOL      0.444396
     77 O12         3.8950    3.5900    0.4170 o         1 MOL     -0.490634
     78 H34         5.5510    3.2500   -1.2030 hn        1 MOL      0.280289
     79 H35         4.2750    0.9690   -0.7330 h1        1 MOL      0.030380
     80 H36         3.4570    1.5870   -2.1780 h1        1 MOL      0.030380
     81 N9          1.9950    2.7420   -0.4170 n         1 MOL     -0.380932
     82 C25         0.9810    3.4470    0.3420 c3        1 MOL     -0.019182
     83 C26        -0.3920    2.6820    0.3530 c         1 MOL      0.639601
     84 O13        -0.6730    1.8690   -0.4950 o         1 MOL     -0.594794
     85 C27         0.8450    4.8530   -0.2300 c3        1 MOL     -0.065824
     86 C28         0.2160    5.9540    0.5850 ca        1 MOL     -0.084016
     87 C29        -1.1120    6.3830    0.3160 ca        1 MOL     -0.043166
     88 C30         0.7630    6.3970    1.7980 ca        1 MOL     -0.043166
     89 C31        -1.8830    7.1030    1.2360 ca        1 MOL     -0.345095
     90 C32         0.0300    7.1220    2.7350 ca        1 MOL     -0.345095
     91 C33        -1.3230    7.4710    2.4320 ca        1 MOL      0.390779
     92 O14        -2.0900    7.8400    3.4340 oh        1 MOL     -0.504331
     93 H37         1.6360    2.1190   -1.1200 hn        1 MOL      0.258321
     94 H38         1.3480    3.4820    1.3700 h1        1 MOL      0.083026
     95 H39         0.3960    4.8260   -1.2160 hc        1 MOL      0.071050
     96 H40         1.7740    5.3080   -0.5970 hc        1 MOL      0.071050
     97 H41        -1.5800    6.0240   -0.5870 ha        1 MOL      0.107655
     98 H42         1.7600    6.1030    2.1040 ha        1 MOL      0.107655
     99 H43        -2.8850    7.3660    0.9570 ha        1 MOL      0.165111
    100 H44         0.5460    7.3820    3.6490 ha        1 MOL      0.165111
    101 H45        -1.6380    8.0710    4.2500 ho        1 MOL      0.385885
    102 N10        -1.2640    3.0760    1.2390 n         1 MOL     -0.478856
    103 C34        -2.5930    2.6130    1.3590 c3        1 MOL      0.291382
    104 C35        -3.5530    2.9480    0.2140 c         1 MOL      0.437342
    105 O15        -3.3950    4.0390   -0.3120 o         1 MOL     -0.501391
    106 C36        -3.1810    3.0160    2.7160 c3        1 MOL      0.228073
    107 C37        -2.7540    2.2550    4.0180 c3        1 MOL     -0.192042
    108 C38        -3.0380    4.5610    3.0950 c3        1 MOL     -0.394888
    109 C39        -2.6990    0.7100    3.8420 c3        1 MOL      0.029956
    110 H46        -0.9190    3.8350    1.8140 hn        1 MOL      0.227611
    111 H47        -2.5620    1.5200    1.4160 h1        1 MOL     -0.005664
    112 H48        -4.2200    2.7080    2.5910 hc        1 MOL     -0.038867
    113 H49        -3.4470    2.5430    4.8060 hc        1 MOL      0.043840
    114 H50        -1.7580    2.6280    4.2350 hc        1 MOL      0.043840
    115 H51        -2.0160    4.9260    3.0690 hc        1 MOL      0.105354
    116 H52        -3.6020    5.2710    2.4880 hc        1 MOL      0.105354
    117 H53        -3.3680    4.7240    4.1290 hc        1 MOL      0.105354
    118 H54        -3.4340    0.3030    3.1490 hc        1 MOL      0.000540
    119 H55        -1.7790    0.4930    3.3090 hc        1 MOL      0.000540
    120 H56        -2.7000    0.1750    4.7850 hc        1 MOL      0.000540
    121 N11        -4.5040    2.0260   -0.1290 n         1 MOL     -0.296095
    122 C40        -5.5980    2.2760   -0.9920 c3        1 MOL     -0.020450
    123 C41        -6.0760    0.9660   -1.7110 c         1 MOL      0.503053
    124 O16        -5.9220   -0.1480   -1.1760 o         1 MOL     -0.317126
    125 C42        -6.8220    2.8140   -0.2920 c3        1 MOL      0.029881
    126 O17        -7.1040    2.1320    0.9220 oh        1 MOL     -0.597369
    127 H57        -4.4830    1.1200    0.3040 hn        1 MOL      0.249562
    128 H58        -5.3280    2.9690   -1.7860 h1        1 MOL      0.070057
    129 H59        -7.7600    2.7580   -0.8340 h1        1 MOL      0.051783
    130 H60        -6.6810    3.8690   -0.0360 h1        1 MOL      0.051783
    131 H61        -7.9050    2.4990    1.3000 ho        1 MOL      0.419513
    132 N12        -6.7100    1.0870   -2.9130 n         1 MOL     -0.600257
    133 C43        -7.2050   -0.0800   -3.6670 c3        1 MOL      0.250371
    134 C44        -7.9300   -1.1430   -2.8570 c         1 MOL      0.333785
    135 O18        -7.6700   -2.2990   -3.0110 o         1 MOL     -0.417222
    136 C45        -5.9040   -0.5500   -4.3980 c3        1 MOL     -0.279558
    137 H62        -6.7560    2.0150   -3.2980 hn        1 MOL      0.321180
    138 H63        -8.0220    0.3000   -4.2910 h1        1 MOL      0.051886
    139 H64        -5.7110    0.1830   -5.1760 hc        1 MOL      0.077812
    140 H65        -5.0940   -0.8770   -3.7340 hc        1 MOL      0.077812
    141 H66        -6.1790   -1.3790   -5.0470 hc        1 MOL      0.077812
    142 N13        -8.8410   -0.7610   -2.0200 n         1 MOL     -0.423308
    143 C46        -9.5520   -1.6030   -1.0450 c3        1 MOL      0.178611
    144 C47        -8.6800   -2.6420   -0.3120 c         1 MOL      0.210856
    145 O19        -9.1510   -3.7500   -0.0520 o         1 MOL     -0.432931
    146 C48       -10.8040   -2.2130   -1.7490 c3        1 MOL     -0.242333
    147 H67        -9.1790    0.1820   -2.1620 hn        1 MOL      0.286004
    148 H68       -10.0630   -0.9060   -0.3770 h1        1 MOL      0.053083
    149 H69       -11.3960   -1.4300   -2.2120 hc        1 MOL      0.079072
    150 H70       -10.5950   -3.0530   -2.4150 hc        1 MOL      0.079072
    151 H71       -11.5280   -2.6530   -1.0590 hc        1 MOL      0.079072
    152 N14        -7.3900   -2.4170   -0.0970 n         1 MOL     -0.089880
    153 C49        -6.5890   -3.4630    0.5150 c3        1 MOL     -0.053323
    154 C50        -6.9010   -3.8220    1.9530 c         1 MOL      0.409323
    155 O20        -6.8610   -4.9730    2.3100 o         1 MOL     -0.518262
    156 C51        -5.0930   -3.1960    0.3620 c3        1 MOL      0.134214
    157 C52        -4.7010   -1.9190    1.2290 c3        1 MOL     -0.039971
    158 C53        -3.4220   -1.4570    0.6590 c         1 MOL      0.676179
    159 O21        -2.3950   -2.2410    0.8180 o         1 MOL     -0.759869
    160 O22        -3.2190   -0.4310    0.0110 o         1 MOL     -0.759869
    161 H72        -6.8110   -1.6700   -0.4670 hn        1 MOL      0.069055
    162 H73        -6.7480   -4.3970   -0.0220 h1        1 MOL      0.094693
    163 H74        -4.8070   -3.0720   -0.6770 hc        1 MOL      0.002364
    164 H75        -4.5700   -4.0970    0.6720 hc        1 MOL      0.002364
    165 H76        -4.5430   -2.1660    2.2800 hc        1 MOL     -0.005162
    166 H77        -5.4250   -1.1190    1.0980 hc        1 MOL     -0.005162
    167 N15        -7.3120   -2.8870    2.8150 n         1 MOL     -0.134750
    168 C54        -7.7260   -3.1740    4.2380 c3        1 MOL     -0.244736
    169 H78        -8.2980   -2.3310    4.6270 h1        1 MOL      0.109376
    170 H79        -8.3410   -4.0730    4.2640 h1        1 MOL      0.109376
    171 H80        -6.8370   -3.3230    4.8530 h1        1 MOL      0.109376
    172 H81        -7.2910   -1.9590    2.4350 hn        1 MOL      0.146064
    173 Ca1        -0.8150   -0.9570   -0.7450 Ca        1 MOL      1.768790
    174 O23        -1.7420    0.1630   -2.8360 oh        1 MOL     -0.861752
    175 H82        -1.9810    1.0860   -2.8690 ho        1 MOL      0.423172
    176 H83        -1.9020   -0.1660   -3.7200 ho        1 MOL      0.423172
    177 O24         0.3490   -0.6620    1.6650 oh        1 MOL     -0.861752
    178 H84         0.5490    0.1030    2.2000 ho        1 MOL      0.423172
    179 H85         0.8490   -1.3760    2.0600 ho        1 MOL      0.423172
    180 O25         1.5740   -0.0870   -1.0510 oh        1 MOL     -0.861752
    181 H86         2.0250   -0.2760   -0.2250 ho        1 MOL      0.423172
    182 H87         2.1950   -0.3500   -1.7360 ho        1 MOL      0.423172
    183 O26        -2.3690   -2.9100   -2.1710 oh        1 MOL     -0.861752
    184 H88        -3.1920   -3.3150   -1.9270 ho        1 MOL      0.423172
    185 H89        -2.4180   -2.8090   -3.1170 ho        1 MOL      0.423172
@<TRIPOS>BOND
     1    1    2 1   
     2    1    4 1   
     3    1    5 1   
     4    1    6 1   
     5    2    3 2   
     6    2    7 1   
     7    7    8 1   
     8    7   15 1   
     9    8    9 1   
    10    8   11 1   
    11    8   16 1   
    12    9   10 2   
    13    9   19 1   
    14   11   12 1   
    15   11   17 1   
    16   11   18 1   
    17   12   13 1   
    18   12   14 1   
    19   19   20 1   
    20   19   28 1   
    21   20   21 1   
    22   20   23 1   
    23   20   29 1   
    24   21   22 2   
    25   21   41 1   
    26   23   24 1   
    27   23   30 1   
    28   23   31 1   
    29   24   25 1   
    30   24   32 1   
    31   24   33 1   
    32   25   26 1   
    33   25   34 1   
    34   25   35 1   
    35   26   27 1   
    36   26   36 1   
    37   26   37 1   
    38   27   38 1   
    39   27   39 1   
    40   27   40 1   
    41   41   42 1   
    42   41   49 1   
    43   42   43 1   
    44   42   45 1   
    45   42   50 1   
    46   43   44 2   
    47   43   53 1   
    48   45   46 1   
    49   45   51 1   
    50   45   52 1   
    51   46   47 1   
    52   46   48 1   
    53   53   54 1   
    54   53   57 1   
    55   54   55 1   
    56   54   58 1   
    57   54   59 1   
    58   55   56 2   
    59   55   60 1   
    60   60   61 1   
    61   60   68 1   
    62   61   62 1   
    63   61   64 1   
    64   61   69 1   
    65   62   63 2   
    66   62   74 1   
    67   64   65 1   
    68   64   70 1   
    69   64   71 1   
    70   65   66 1   
    71   65   67 2   
    72   66   72 1   
    73   66   73 1   
    74   74   75 1   
    75   74   78 1   
    76   75   76 1   
    77   75   79 1   
    78   75   80 1   
    79   76   77 2   
    80   76   81 1   
    81   81   82 1   
    82   81   93 1   
    83   82   83 1   
    84   82   85 1   
    85   82   94 1   
    86   83   84 2   
    87   83  102 1   
    88   85   86 1   
    89   85   95 1   
    90   85   96 1   
    91   86   87 ar  
    92   86   88 ar  
    93   87   89 ar  
    94   87   97 1   
    95   88   90 ar  
    96   88   98 1   
    97   89   91 ar  
    98   89   99 1   
    99   90   91 ar  
   100   90  100 1   
   101   91   92 1   
   102   92  101 1   
   103  102  103 1   
   104  102  110 1   
   105  103  104 1   
   106  103  106 1   
   107  103  111 1   
   108  104  105 2   
   109  104  121 1   
   110  106  107 1   
   111  106  108 1   
   112  106  112 1   
   113  107  109 1   
   114  107  113 1   
   115  107  114 1   
   116  108  115 1   
   117  108  116 1   
   118  108  117 1   
   119  109  118 1   
   120  109  119 1   
   121  109  120 1   
   122  121  122 1   
   123  121  127 1   
   124  122  123 1   
   125  122  125 1   
   126  122  128 1   
   127  123  124 2   
   128  123  132 1   
   129  125  126 1   
   130  125  129 1   
   131  125  130 1   
   132  126  131 1   
   133  132  133 1   
   134  132  137 1   
   135  133  134 1   
   136  133  136 1   
   137  133  138 1   
   138  134  135 2   
   139  134  142 1   
   140  136  139 1   
   141  136  140 1   
   142  136  141 1   
   143  142  143 1   
   144  142  147 1   
   145  143  144 1   
   146  143  146 1   
   147  143  148 1   
   148  144  145 2   
   149  144  152 1   
   150  146  149 1   
   151  146  150 1   
   152  146  151 1   
   153  152  153 1   
   154  152  161 1   
   155  153  154 1   
   156  153  156 1   
   157  153  162 1   
   158  154  155 2   
   159  154  167 1   
   160  156  157 1   
   161  156  163 1   
   162  156  164 1   
   163  157  158 1   
   164  157  165 1   
   165  157  166 1   
   166  158  159 1   
   167  158  160 1   
   168  167  168 1   
   169  167  172 1   
   170  168  169 1   
   171  168  170 1   
   172  168  171 1   
   173  174  175 1   
   174  174  176 1   
   175  177  178 1   
   176  177  179 1   
   177  180  181 1   
   178  180  182 1   
   179  183  184 1   
   180  183  185 1   
@<TRIPOS>SUBSTRUCTURE
     1 MOL         1 TEMP              0 ****  ****    0 ROOT
