@<TRIPOS>MOLECULE
MOL
  181   177     1     0     0
SMALL
resp


@<TRIPOS>ATOM
      1 C1        -10.5860    6.5790    0.3660 c3        1 MOL     -0.410400
      2 C2         -9.6590    5.7460   -0.4940 c         1 MOL      0.801883
      3 O1         -8.8970    6.2420   -1.3100 o         1 MOL     -0.617546
      4 H1        -10.2660    6.5200    1.4060 hc        1 MOL      0.102511
      5 H2        -10.5540    7.6170    0.0350 hc        1 MOL      0.102511
      6 H3        -11.6040    6.1990    0.2770 hc        1 MOL      0.102511
      7 N1         -9.6720    4.4230   -0.4610 n         1 MOL     -0.738521
      8 C3        -10.3690    3.4900    0.4400 c3        1 MOL      0.046398
      9 C4        -10.9900    2.2170   -0.1380 c         1 MOL      0.426665
     10 O2        -11.4030    1.3250    0.5610 o         1 MOL     -0.499397
     11 C5         -9.4530    3.1870    1.5760 c3        1 MOL     -0.085239
     12 C6         -8.0850    2.6070    1.2950 c         1 MOL      0.848871
     13 O3         -7.5050    2.1900    2.2290 o         1 MOL     -0.813062
     14 O4         -7.5650    2.6010    0.1200 o         1 MOL     -0.813062
     15 H4         -9.0370    3.9610   -1.0940 hn        1 MOL      0.411485
     16 H5        -11.1570    4.0830    0.9020 h1        1 MOL      0.074181
     17 H6        -10.0200    2.6300    2.3160 hc        1 MOL      0.031572
     18 H7         -9.2310    4.1530    2.0230 hc        1 MOL      0.031572
     19 N2        -11.0440    2.1630   -1.4690 n         1 MOL     -0.367848
     20 C7        -11.7130    1.0860   -2.1410 c3        1 MOL      0.068407
     21 C8        -11.1080   -0.3390   -1.7670 c         1 MOL      0.471231
     22 O5        -11.8680   -1.3430   -1.7620 o         1 MOL     -0.554248
     23 C9        -11.8060    1.4530   -3.5980 c3        1 MOL     -0.400554
     24 H8        -10.4860    2.8880   -1.9020 hn        1 MOL      0.278302
     25 H9        -12.7550    1.0540   -1.7980 h1        1 MOL      0.099218
     26 H10       -12.3230    2.4020   -3.7330 hc        1 MOL      0.115472
     27 H11       -10.8780    1.7470   -4.0970 hc        1 MOL      0.115472
     28 H12       -12.4610    0.7740   -4.1380 hc        1 MOL      0.115472
     29 N3         -9.7820   -0.3590   -1.4430 n         1 MOL     -0.156497
     30 C10        -8.8950   -1.5240   -1.0870 c3        1 MOL     -0.168835
     31 C11        -8.2540   -1.5610    0.3410 c         1 MOL      0.582980
     32 O6         -8.1330   -0.5190    1.0020 o         1 MOL     -0.500081
     33 C12        -7.8660   -1.7930   -2.2410 c3        1 MOL     -0.140426
     34 C13        -6.9810   -0.5360   -2.3200 c         1 MOL      0.688357
     35 O7         -6.0640   -0.2780   -1.4490 o         1 MOL     -0.681985
     36 O8         -7.0640    0.1860   -3.3420 o         1 MOL     -0.681985
     37 H13        -9.3660    0.5660   -1.4550 hn        1 MOL      0.194806
     38 H14        -9.5550   -2.3960   -1.1260 h1        1 MOL      0.082948
     39 H15        -8.3920   -1.9060   -3.1850 hc        1 MOL      0.046318
     40 H16        -7.2260   -2.6490   -2.0280 hc        1 MOL      0.046318
     41 N4         -7.8420   -2.7450    0.7370 n         1 MOL     -0.478009
     42 C14        -7.1510   -2.8660    2.0620 c3        1 MOL     -0.131219
     43 C15        -5.7330   -2.3200    2.1840 c         1 MOL      0.756489
     44 O9         -5.2240   -1.6120    1.3290 o         1 MOL     -0.624025
     45 H17        -7.7910   -3.5270    0.1060 hn        1 MOL      0.328891
     46 H18        -7.1220   -3.9330    2.2650 h1        1 MOL      0.087795
     47 H19        -7.8170   -2.3670    2.7700 h1        1 MOL      0.087795
     48 N5         -5.1040   -2.6540    3.2720 n         1 MOL     -0.687691
     49 C16        -3.7490   -2.1960    3.6640 c3        1 MOL      0.433852
     50 C17        -2.6690   -2.5190    2.6240 c         1 MOL      0.153351
     51 O10        -1.5750   -1.9810    2.6430 o         1 MOL     -0.334527
     52 C18        -3.2980   -2.9600    4.9440 c3        1 MOL     -0.394158
     53 C19        -1.8420   -2.8040    5.3340 c         1 MOL      0.536802
     54 N6         -0.9860   -3.8210    5.2660 n         1 MOL     -0.574981
     55 O11        -1.4130   -1.7080    5.6660 o         1 MOL     -0.483803
     56 H20        -5.6080   -3.1850    3.9680 hn        1 MOL      0.295238
     57 H21        -3.7580   -1.1180    3.8340 h1        1 MOL      0.046128
     58 H22        -3.3950   -4.0320    4.7630 hc        1 MOL      0.086931
     59 H23        -3.8780   -2.7720    5.8430 hc        1 MOL      0.086931
     60 H24        -1.2440   -4.7930    5.1350 hn        1 MOL      0.309981
     61 H25        -0.0740   -3.6590    5.6550 hn        1 MOL      0.309981
     62 N7         -2.9420   -3.4940    1.7780 n         1 MOL     -0.057640
     63 C20        -1.9470   -4.0530    0.8140 c3        1 MOL     -0.455155
     64 C21        -1.9010   -3.1050   -0.4130 c         1 MOL      0.937161
     65 O12        -2.6990   -2.1350   -0.5410 o         1 MOL     -0.715268
     66 H26        -3.7930   -4.0130    1.8780 hn        1 MOL      0.201454
     67 H27        -2.2320   -5.0470    0.4520 h1        1 MOL      0.149226
     68 H28        -1.0060   -4.2930    1.3100 h1        1 MOL      0.149226
     69 N8         -0.9220   -3.2220   -1.3260 n         1 MOL     -0.605164
     70 C22         0.0230   -4.3890   -1.5640 c3        1 MOL     -0.180036
     71 C23         1.4940   -4.0050   -1.7070 c         1 MOL      0.550018
     72 O13         2.3220   -4.9140   -1.8100 o         1 MOL     -0.583900
     73 C24        -0.4610   -5.3350   -2.7430 c3        1 MOL      0.366754
     74 C25        -1.7930   -6.0430   -2.3160 c3        1 MOL     -0.218259
     75 O14        -0.5350   -4.6840   -3.9870 oh        1 MOL     -0.602232
     76 H29        -0.8220   -2.5470   -2.0770 hn        1 MOL      0.374885
     77 H30        -0.0050   -4.8910   -0.5910 h1        1 MOL      0.146210
     78 H31         0.2270   -6.1630   -2.8480 h1        1 MOL      0.011131
     79 H32        -1.0670   -5.2250   -4.5750 ho        1 MOL      0.400528
     80 H33        -2.0790   -6.8450   -2.9920 hc        1 MOL      0.038439
     81 H34        -1.4860   -6.4480   -1.3450 hc        1 MOL      0.038439
     82 H35        -2.5940   -5.3500   -2.0560 hc        1 MOL      0.038439
     83 N9          1.7930   -2.7010   -1.7240 n         1 MOL     -0.240597
     84 C26         3.1690   -2.1980   -1.9240 c3        1 MOL     -0.336371
     85 C27         3.1640   -0.8640   -1.1750 c         1 MOL      0.461441
     86 O15         2.3550   -0.0100   -1.4560 o         1 MOL     -0.528686
     87 C28         3.4490   -1.9060   -3.4110 c3        1 MOL      0.357804
     88 C29         3.2100   -3.1140   -4.3950 c3        1 MOL     -0.003296
     89 C30         4.8420   -1.3660   -3.5580 c3        1 MOL     -0.036908
     90 C31         3.5830   -2.8130   -5.8700 c3        1 MOL     -0.111616
     91 H36         1.0420   -2.0230   -1.6340 hn        1 MOL      0.228079
     92 H37         3.8320   -3.0030   -1.6010 h1        1 MOL      0.154624
     93 H38         2.7390   -1.1380   -3.7110 hc        1 MOL      0.004038
     94 H39         2.1370   -3.2600   -4.2920 hc        1 MOL     -0.017870
     95 H40         3.8220   -4.0030   -4.2160 hc        1 MOL     -0.017870
     96 H41         4.9080   -0.9350   -4.5580 hc        1 MOL     -0.006156
     97 H42         4.9890   -0.5600   -2.8380 hc        1 MOL     -0.006156
     98 H43         5.5320   -2.1610   -3.2890 hc        1 MOL     -0.006156
     99 H44         2.9520   -3.4300   -6.4960 hc        1 MOL      0.017691
    100 H45         3.1910   -1.8140   -6.0510 hc        1 MOL      0.017691
    101 H46         4.6350   -2.9540   -6.1340 hc        1 MOL      0.017691
    102 N10         4.1210   -0.5640   -0.2850 n         1 MOL     -0.146390
    103 C32         5.1790   -1.4980    0.1580 c3        1 MOL      0.040580
    104 C33         6.4450   -0.6730    0.4640 c         1 MOL      0.443131
    105 O16         6.3780    0.5620    0.4050 o         1 MOL     -0.439062
    106 C34         4.6840   -2.3630    1.3270 c3        1 MOL     -0.215157
    107 C35         3.7810   -1.6430    2.3140 c         1 MOL      0.681149
    108 O17         4.4540   -0.8710    3.0350 o         1 MOL     -0.704138
    109 O18         2.5260   -1.7900    2.3460 o         1 MOL     -0.704138
    110 H47         4.1010    0.3260    0.1870 hn        1 MOL      0.240613
    111 H48         5.4460   -2.2180   -0.6110 h1        1 MOL      0.047853
    112 H49         5.5370   -2.8720    1.7660 hc        1 MOL      0.010474
    113 H50         4.0570   -3.1370    0.8660 hc        1 MOL      0.010474
    114 N11         7.5470   -1.2830    0.6950 n         1 MOL     -0.490363
    115 C36         8.8400   -0.6120    0.9630 c3        1 MOL      0.274435
    116 C37         9.3800    0.1010   -0.2920 c         1 MOL      0.341328
    117 O19         9.1980   -0.3820   -1.3990 o         1 MOL     -0.511181
    118 C38        10.0000   -1.5170    1.3930 c3        1 MOL     -0.216899
    119 C39        11.4650   -1.0650    1.3370 ca        1 MOL      0.151988
    120 C40        12.0150   -0.3020    2.3650 ca        1 MOL     -0.204792
    121 C41        12.2920   -1.5090    0.2690 ca        1 MOL     -0.204792
    122 C42        13.3980    0.0490    2.2790 ca        1 MOL     -0.072745
    123 C43        13.6400   -1.1730    0.2040 ca        1 MOL     -0.072745
    124 C44        14.1940   -0.3700    1.2410 ca        1 MOL     -0.200100
    125 H51         7.6150   -2.2970    0.6880 hn        1 MOL      0.290592
    126 H52         8.6570    0.0560    1.7910 h1        1 MOL      0.062211
    127 H53        10.0380   -2.3830    0.7210 hc        1 MOL      0.059126
    128 H54         9.8520   -1.9110    2.3950 hc        1 MOL      0.059126
    129 H55        11.3130   -0.0510    3.1460 ha        1 MOL      0.137213
    130 H56        11.9090   -2.0860   -0.5680 ha        1 MOL      0.137213
    131 H57        13.8010    0.6840    3.0490 ha        1 MOL      0.104648
    132 H58        14.2150   -1.4560   -0.6650 ha        1 MOL      0.104648
    133 H59        15.2400   -0.1170    1.1350 ha        1 MOL      0.121300
    134 N12        10.0510    1.2720   -0.2270 n         1 MOL      0.073774
    135 C45         9.9510    2.2090    0.8760 c3        1 MOL      0.041733
    136 C46         8.6050    2.9590    0.8640 c         1 MOL      0.412486
    137 O20         8.1770    3.2700    1.9800 o         1 MOL     -0.569406
    138 C47        11.0700    3.2010    0.6120 c3        1 MOL      0.042246
    139 C48        12.0390    2.3440   -0.1390 c3        1 MOL      0.013793
    140 C49        11.1180    1.5400   -1.0780 c3        1 MOL     -0.100368
    141 H60        10.0770    1.7890    1.8680 h1        1 MOL     -0.000055
    142 H61        10.7700    4.0750    0.0260 hc        1 MOL      0.004311
    143 H62        11.5720    3.6280    1.4720 hc        1 MOL      0.004311
    144 H63        12.7050    2.9830   -0.7140 hc        1 MOL     -0.012726
    145 H64        12.5800    1.7540    0.5920 hc        1 MOL     -0.012726
    146 H65        10.8210    2.1750   -1.9140 h1        1 MOL      0.047315
    147 H66        11.5770    0.6200   -1.4310 h1        1 MOL      0.047315
    148 N13         7.9170    3.2120   -0.2540 n         1 MOL     -0.369628
    149 C50         6.5740    3.8120   -0.2460 c3        1 MOL      0.190200
    150 C51         6.6560    5.2760    0.2580 c         1 MOL      0.357675
    151 O21         7.2230    6.1850   -0.3950 o         1 MOL     -0.583215
    152 C52         6.0790    3.9020   -1.7140 c3        1 MOL      0.020098
    153 C53         6.1790    2.5550   -2.4780 c3        1 MOL     -0.070467
    154 C54         5.6020    2.5750   -3.8320 c         1 MOL      0.779915
    155 O22         6.4340    2.6750   -4.7600 o         1 MOL     -0.761863
    156 O23         4.3880    2.5630   -4.0760 o         1 MOL     -0.761863
    157 H67         8.3240    2.9900   -1.1460 hn        1 MOL      0.260724
    158 H68         5.9180    3.2400    0.4080 h1        1 MOL      0.069919
    159 H69         6.5370    4.6970   -2.3000 hc        1 MOL      0.000985
    160 H70         5.0100    4.1430   -1.6730 hc        1 MOL      0.000985
    161 H71         5.5970    1.8180   -1.9270 hc        1 MOL     -0.049654
    162 H72         7.2090    2.1940   -2.5220 hc        1 MOL     -0.049654
    163 N14         6.2060    5.6790    1.4510 n         1 MOL     -0.199474
    164 C55         5.2530    5.0660    2.3460 c3        1 MOL     -0.231335
    165 H73         5.3560    5.5040    3.3390 h1        1 MOL      0.092971
    166 H74         4.2430    5.2390    1.9760 h1        1 MOL      0.092971
    167 H75         5.4420    3.9940    2.4020 h1        1 MOL      0.092971
    168 H76         6.5110    6.5900    1.7570 hn        1 MOL      0.231025
    169 Ca1        -5.5440    0.9500    0.7720 Ca        1 MOL      1.681246
    170 O24        -2.9250    0.3480    0.7040 oh        1 MOL     -0.801249
    171 H77        -2.9210   -0.5920    0.5100 ho        1 MOL      0.410462
    172 H78        -2.2920    0.7090    0.0820 ho        1 MOL      0.410462
    173 O25        -4.4690    2.8660    2.2470 oh        1 MOL     -0.801249
    174 H79        -4.8270    2.9610    3.1320 ho        1 MOL      0.410462
    175 H80        -3.7860    3.5310    2.1950 ho        1 MOL      0.410462
    176 O26        -5.5210    0.4540    3.4930 oh        1 MOL     -0.801249
    177 H81        -5.4770    1.2790    3.9640 ho        1 MOL      0.410462
    178 H82        -6.1790   -0.0600    3.9710 ho        1 MOL      0.410462
    179 O27        -4.1870    2.3760   -0.9150 oh        1 MOL     -0.801249
    180 H83        -4.3760    2.5520   -1.8380 ho        1 MOL      0.410462
    181 H84        -3.2480    2.5360   -0.8350 ho        1 MOL      0.410462
@<TRIPOS>BOND
     1    1    2 1   
     2    1    4 1   
     3    1    5 1   
     4    1    6 1   
     5    2    3 2   
     6    2    7 1   
     7    7    8 1   
     8    7   15 1   
     9    8    9 1   
    10    8   11 1   
    11    8   16 1   
    12    9   10 2   
    13    9   19 1   
    14   11   12 1   
    15   11   17 1   
    16   11   18 1   
    17   12   13 1   
    18   12   14 1   
    19   19   20 1   
    20   19   24 1   
    21   20   21 1   
    22   20   23 1   
    23   20   25 1   
    24   21   22 2   
    25   21   29 1   
    26   23   26 1   
    27   23   27 1   
    28   23   28 1   
    29   29   30 1   
    30   29   37 1   
    31   30   31 1   
    32   30   33 1   
    33   30   38 1   
    34   31   32 2   
    35   31   41 1   
    36   33   34 1   
    37   33   39 1   
    38   33   40 1   
    39   34   35 1   
    40   34   36 1   
    41   41   42 1   
    42   41   45 1   
    43   42   43 1   
    44   42   46 1   
    45   42   47 1   
    46   43   44 2   
    47   43   48 1   
    48   48   49 1   
    49   48   56 1   
    50   49   50 1   
    51   49   52 1   
    52   49   57 1   
    53   50   51 2   
    54   50   62 1   
    55   52   53 1   
    56   52   58 1   
    57   52   59 1   
    58   53   54 1   
    59   53   55 2   
    60   54   60 1   
    61   54   61 1   
    62   62   63 1   
    63   62   66 1   
    64   63   64 1   
    65   63   67 1   
    66   63   68 1   
    67   64   65 2   
    68   64   69 1   
    69   69   70 1   
    70   69   76 1   
    71   70   71 1   
    72   70   73 1   
    73   70   77 1   
    74   71   72 2   
    75   71   83 1   
    76   73   74 1   
    77   73   75 1   
    78   73   78 1   
    79   74   80 1   
    80   74   81 1   
    81   74   82 1   
    82   75   79 1   
    83   83   84 1   
    84   83   91 1   
    85   84   85 1   
    86   84   87 1   
    87   84   92 1   
    88   85   86 2   
    89   85  102 1   
    90   87   88 1   
    91   87   89 1   
    92   87   93 1   
    93   88   90 1   
    94   88   94 1   
    95   88   95 1   
    96   89   96 1   
    97   89   97 1   
    98   89   98 1   
    99   90   99 1   
   100   90  100 1   
   101   90  101 1   
   102  102  103 1   
   103  102  110 1   
   104  103  104 1   
   105  103  106 1   
   106  103  111 1   
   107  104  105 2   
   108  104  114 1   
   109  106  107 1   
   110  106  112 1   
   111  106  113 1   
   112  107  108 1   
   113  107  109 1   
   114  114  115 1   
   115  114  125 1   
   116  115  116 1   
   117  115  118 1   
   118  115  126 1   
   119  116  117 2   
   120  116  134 1   
   121  118  119 1   
   122  118  127 1   
   123  118  128 1   
   124  119  120 ar  
   125  119  121 ar  
   126  120  122 ar  
   127  120  129 1   
   128  121  123 ar  
   129  121  130 1   
   130  122  124 ar  
   131  122  131 1   
   132  123  124 ar  
   133  123  132 1   
   134  124  133 1   
   135  134  135 1   
   136  134  140 1   
   137  135  136 1   
   138  135  138 1   
   139  135  141 1   
   140  136  137 2   
   141  136  148 1   
   142  138  139 1   
   143  138  142 1   
   144  138  143 1   
   145  139  140 1   
   146  139  144 1   
   147  139  145 1   
   148  140  146 1   
   149  140  147 1   
   150  148  149 1   
   151  148  157 1   
   152  149  150 1   
   153  149  152 1   
   154  149  158 1   
   155  150  151 2   
   156  150  163 1   
   157  152  153 1   
   158  152  159 1   
   159  152  160 1   
   160  153  154 1   
   161  153  161 1   
   162  153  162 1   
   163  154  155 1   
   164  154  156 1   
   165  163  164 1   
   166  163  168 1   
   167  164  165 1   
   168  164  166 1   
   169  164  167 1   
   170  170  171 1   
   171  170  172 1   
   172  173  174 1   
   173  173  175 1   
   174  176  177 1   
   175  176  178 1   
   176  179  180 1   
   177  179  181 1   
@<TRIPOS>SUBSTRUCTURE
     1 MOL         1 TEMP              0 ****  ****    0 ROOT
