@<TRIPOS>MOLECULE
MOL
  198   191     1     0     0
SMALL
resp


@<TRIPOS>ATOM
      1 C1          7.0810    5.1080    0.8600 c3        1 MOL     -0.397106
      2 C2          8.5140    5.5410    0.5420 c         1 MOL      0.704749
      3 O1          9.2510    5.8350    1.4700 o         1 MOL     -0.572679
      4 H1          6.7780    5.5300    1.8180 hc        1 MOL      0.097350
      5 H2          6.4120    5.4650    0.0780 hc        1 MOL      0.097350
      6 H3          7.0330    4.0200    0.9110 hc        1 MOL      0.097350
      7 N1          8.9190    5.5810   -0.7280 n         1 MOL     -0.665172
      8 C3         10.2750    5.3120   -1.1670 c3        1 MOL      0.370491
      9 C4         10.7740    3.9300   -0.7340 c         1 MOL      0.428245
     10 O2         10.5350    3.5030    0.4060 o         1 MOL     -0.506998
     11 C5         11.2860    6.4300   -0.7150 c3        1 MOL     -0.286123
     12 C6         12.4080    6.6340   -1.6790 c         1 MOL      0.674435
     13 O3         13.1540    7.6010   -1.4550 o         1 MOL     -0.681899
     14 O4         12.6180    5.8240   -2.5900 o         1 MOL     -0.681899
     15 H4          8.1420    5.4540   -1.3710 hn        1 MOL      0.316603
     16 H5         10.2900    5.2200   -2.2440 h1        1 MOL     -0.028637
     17 H6         11.6950    6.0650    0.2250 hc        1 MOL      0.091625
     18 H7         10.7290    7.3570   -0.5620 hc        1 MOL      0.091625
     19 N2         11.4490    3.2210   -1.6240 n         1 MOL     -0.413312
     20 C7         11.9240    1.8160   -1.5050 c3        1 MOL     -0.044804
     21 C8         10.9020    0.7130   -1.2480 c         1 MOL      0.614828
     22 O5         11.0880   -0.4190   -1.7310 o         1 MOL     -0.620871
     23 C9         13.1870    1.7640   -0.6030 c3        1 MOL     -0.015709
     24 C10        13.7920    0.2960   -0.4490 c3        1 MOL     -0.033387
     25 C11        15.1180    0.3400    0.3190 c3        1 MOL     -0.331715
     26 C12        14.9830    1.0020    1.7360 c3        1 MOL     -0.062601
     27 N3         14.3150    0.0320    2.5830 n4        1 MOL     -0.227678
     28 H8         11.6510    3.6870   -2.4900 hn        1 MOL      0.267106
     29 H9         12.2290    1.5960   -2.5340 h1        1 MOL      0.132457
     30 H10        12.8940    2.0890    0.3950 hc        1 MOL      0.070335
     31 H11        13.9650    2.4090   -0.9970 hc        1 MOL      0.070335
     32 H12        13.9420   -0.0100   -1.4850 hc        1 MOL      0.056046
     33 H13        13.1010   -0.3520    0.0820 hc        1 MOL      0.056046
     34 H14        15.7960    1.0390   -0.1750 hc        1 MOL      0.144414
     35 H15        15.4250   -0.6920    0.4250 hc        1 MOL      0.144414
     36 H16        14.3550    1.8690    1.5630 hx        1 MOL      0.121580
     37 H17        15.9700    1.1640    2.1910 hx        1 MOL      0.121580
     38 H18        14.0900    0.3180    3.5350 hn        1 MOL      0.288036
     39 H19        13.4050   -0.1320    2.1670 hn        1 MOL      0.288036
     40 H20        14.7720   -0.8600    2.6270 hn        1 MOL      0.288036
     41 N4          9.8030    1.0210   -0.5170 n         1 MOL     -0.618829
     42 C13         8.6680    0.1610   -0.3420 c3        1 MOL      0.432476
     43 C14         7.5680    0.2350   -1.4080 c         1 MOL      0.498994
     44 O6          6.8950    1.2330   -1.5630 o         1 MOL     -0.601286
     45 C15         8.1690    0.4130    1.0870 c3        1 MOL     -0.167244
     46 C16         7.1140   -0.5950    1.4990 c         1 MOL      0.819984
     47 O7          6.9490   -1.7140    0.9050 o         1 MOL     -0.812077
     48 O8          6.4860   -0.3730    2.5330 o         1 MOL     -0.812077
     49 H21         9.7360    1.9460   -0.0940 hn        1 MOL      0.260972
     50 H22         9.1140   -0.8310   -0.3960 h1        1 MOL      0.011278
     51 H23         7.7650    1.4280    1.1910 hc        1 MOL      0.041070
     52 H24         9.0210    0.2760    1.7510 hc        1 MOL      0.041070
     53 N5          7.1650   -0.8080   -2.0730 n         1 MOL     -0.360732
     54 C17         7.8900   -2.0380   -2.5540 c3        1 MOL     -0.041167
     55 C18         7.1500   -3.3220   -2.5000 c         1 MOL      0.374366
     56 O9          7.5080   -4.2840   -3.1710 o         1 MOL     -0.543905
     57 H25         6.3250   -0.7710   -2.6440 hn        1 MOL      0.259882
     58 H26         8.8360   -2.2240   -2.0480 h1        1 MOL      0.095619
     59 H27         8.1920   -1.9040   -3.5960 h1        1 MOL      0.095619
     60 N6          6.1630   -3.4760   -1.6180 n         1 MOL     -0.011670
     61 C19         5.2470   -4.5590   -1.4500 c3        1 MOL     -0.005226
     62 C20         3.9600   -4.1820   -0.6330 c         1 MOL      0.038738
     63 O10         3.9920   -3.2010    0.1050 o         1 MOL     -0.435016
     64 C21         5.8560   -5.7370   -0.7360 c3        1 MOL      0.151399
     65 C22         6.6420   -5.4570    0.4760 c         1 MOL      0.665652
     66 O11         6.1670   -4.6880    1.3720 o         1 MOL     -0.696885
     67 O12         7.6500   -6.0810    0.7420 o         1 MOL     -0.696885
     68 H28         5.9630   -2.7670   -0.9260 hn        1 MOL      0.080107
     69 H29         4.9220   -4.9850   -2.3950 h1        1 MOL      0.042251
     70 H30         6.4070   -6.3880   -1.4010 hc        1 MOL     -0.046379
     71 H31         5.0430   -6.3950   -0.4540 hc        1 MOL     -0.046379
     72 N7          2.8500   -4.9300   -0.7840 n         1 MOL     -0.013111
     73 C23         1.6360   -4.6550    0.0190 c3        1 MOL     -0.453720
     74 C24         0.7750   -3.5790   -0.7270 c         1 MOL      0.743137
     75 O13         0.4900   -3.8600   -1.8910 o         1 MOL     -0.566929
     76 H32         2.7610   -5.7290   -1.3800 hn        1 MOL      0.272654
     77 H33         1.7930   -4.4640    1.0770 h1        1 MOL      0.149142
     78 H34         1.0360   -5.5640   -0.0680 h1        1 MOL      0.149142
     79 N8          0.4370   -2.4170   -0.1750 n         1 MOL     -0.625147
     80 C25        -0.2040   -1.2670   -0.8620 c3        1 MOL      0.096395
     81 C26        -1.3650   -0.7620   -0.0410 c         1 MOL      0.412468
     82 O14        -1.5460   -1.0450    1.1670 o         1 MOL     -0.538259
     83 C27         0.8200   -0.1990   -1.0810 c3        1 MOL      0.410147
     84 C28         2.1320   -0.6940   -1.7380 c3        1 MOL     -0.476179
     85 O15         0.2870    0.7600   -1.9250 oh        1 MOL     -0.669593
     86 H35         0.6050   -2.4020    0.8130 hn        1 MOL      0.310167
     87 H36        -0.5940   -1.5490   -1.8360 h1        1 MOL      0.099302
     88 H37         0.9790    0.3180   -0.1340 h1        1 MOL     -0.051697
     89 H38         0.9750    1.3700   -2.1740 ho        1 MOL      0.431733
     90 H39         2.8310    0.1450   -1.8020 hc        1 MOL      0.140623
     91 H40         2.5780   -1.5010   -1.1550 hc        1 MOL      0.140623
     92 H41         2.0040   -1.1150   -2.7310 hc        1 MOL      0.140623
     93 N9         -2.1510    0.1040   -0.6160 n         1 MOL     -0.161868
     94 C29        -3.1230    1.0110    0.0970 c3        1 MOL     -0.123142
     95 C30        -4.3160    0.2550    0.5390 c         1 MOL      0.406820
     96 O16        -4.8810    0.5900    1.6040 o         1 MOL     -0.505874
     97 C31        -3.5010    2.2560   -0.8240 c3        1 MOL      0.213916
     98 C32        -4.1820    1.9550   -2.1850 c3        1 MOL     -0.057156
     99 C33        -2.2390    3.1520   -0.9570 c3        1 MOL     -0.281684
    100 C34        -4.6900    3.1790   -2.9730 c3        1 MOL     -0.137574
    101 H42        -2.0710    0.2530   -1.6040 hn        1 MOL      0.206408
    102 H43        -2.6380    1.3890    0.9930 h1        1 MOL      0.131113
    103 H44        -4.2220    2.7230   -0.1450 hc        1 MOL      0.013770
    104 H45        -5.0240    1.2950   -1.9900 hc        1 MOL      0.028207
    105 H46        -3.4780    1.4330   -2.8370 hc        1 MOL      0.028207
    106 H47        -2.5530    4.1500   -1.2970 hc        1 MOL      0.062196
    107 H48        -1.6670    3.2360   -0.0290 hc        1 MOL      0.062196
    108 H49        -1.6210    2.6930   -1.7250 hc        1 MOL      0.062196
    109 H50        -3.8470    3.8320   -3.2130 hc        1 MOL      0.046632
    110 H51        -5.2120    2.9320   -3.8920 hc        1 MOL      0.046632
    111 H52        -5.3950    3.8070   -2.4420 hc        1 MOL      0.046632
    112 N10        -4.8270   -0.7450   -0.2430 n         1 MOL     -0.216811
    113 C35        -6.0780   -1.4440   -0.0380 c3        1 MOL     -0.024941
    114 C36        -6.9570   -1.4810   -1.2820 c         1 MOL      0.633771
    115 O17        -6.3820   -1.6380   -2.3760 o         1 MOL     -0.565685
    116 C37        -5.8030   -2.8240    0.4780 c3        1 MOL      0.408886
    117 C38        -4.8010   -2.8880    1.6720 c3        1 MOL     -0.452686
    118 O18        -6.9460   -3.4590    0.9910 oh        1 MOL     -0.649471
    119 H53        -4.2200   -1.0800   -0.9820 hn        1 MOL      0.124518
    120 H54        -6.6660   -0.9020    0.7120 h1        1 MOL      0.040037
    121 H55        -5.4230   -3.4560   -0.3200 h1        1 MOL      0.018111
    122 H56        -6.9500   -3.2270    1.9140 ho        1 MOL      0.387524
    123 H57        -4.7340   -3.8910    2.0950 hc        1 MOL      0.122020
    124 H58        -3.7810   -2.7180    1.3320 hc        1 MOL      0.122020
    125 H59        -5.1310   -2.1320    2.3910 hc        1 MOL      0.122020
    126 N11        -8.2790   -1.2530   -1.1070 n         1 MOL     -0.510126
    127 C39        -9.2290   -0.9460   -2.1950 c3        1 MOL     -0.034628
    128 C40       -10.3850    0.0100   -1.8520 c         1 MOL      0.551875
    129 O19       -10.8510    0.7820   -2.7600 o         1 MOL     -0.558450
    130 C41        -9.8630   -2.2250   -2.7150 c3        1 MOL      0.248577
    131 C42       -10.6850   -2.0270   -4.0150 c3        1 MOL     -0.301396
    132 O20       -10.6500   -2.8740   -1.7230 oh        1 MOL     -0.607724
    133 H60        -8.5870   -1.3950   -0.1550 hn        1 MOL      0.287973
    134 H61        -8.6170   -0.5870   -3.0110 h1        1 MOL      0.133913
    135 H62        -9.1130   -2.9530   -3.0120 h1        1 MOL      0.065106
    136 H63       -11.3010   -3.4370   -2.1530 ho        1 MOL      0.399039
    137 H64       -11.1020   -3.0260   -4.1930 hc        1 MOL      0.073293
    138 H65       -11.5520   -1.3980   -3.7680 hc        1 MOL      0.073293
    139 H66       -10.0810   -1.6940   -4.8500 hc        1 MOL      0.073293
    140 N12       -10.7750    0.0490   -0.6260 n         1 MOL     -0.448572
    141 C43       -12.0330    0.6580   -0.1230 c3        1 MOL      0.187804
    142 C44       -11.9790    1.1050    1.3540 c         1 MOL      0.234840
    143 O21       -11.2070    0.6470    2.2020 o         1 MOL     -0.493550
    144 C45       -13.1830   -0.4290   -0.3290 c3        1 MOL      0.004035
    145 C46       -13.8260   -0.3260   -1.7330 c3        1 MOL     -0.192683
    146 C47       -15.2010   -1.0600   -1.7500 c3        1 MOL     -0.029701
    147 C48       -16.0780   -0.4890   -2.8940 c3        1 MOL     -0.005672
    148 N13       -17.3660   -1.2030   -2.9640 n4        1 MOL     -0.266081
    149 H67       -10.3500   -0.6290   -0.0060 hn        1 MOL      0.289722
    150 H68       -12.2410    1.5090   -0.7640 h1        1 MOL      0.112698
    151 H69       -14.0120   -0.1770    0.3160 hc        1 MOL      0.016116
    152 H70       -12.7870   -1.4390   -0.1990 hc        1 MOL      0.016116
    153 H71       -13.1260   -0.5900   -2.5230 hc        1 MOL      0.079996
    154 H72       -14.0170    0.7250   -1.9120 hc        1 MOL      0.079996
    155 H73       -15.7760   -1.0050   -0.8250 hc        1 MOL      0.038358
    156 H74       -15.1000   -2.1510   -1.8470 hc        1 MOL      0.038358
    157 H75       -15.5990   -0.6070   -3.8650 hx        1 MOL      0.109299
    158 H76       -16.3590    0.5280   -2.6710 hx        1 MOL      0.109299
    159 H77       -17.1750   -2.1940   -2.9350 hn        1 MOL      0.286152
    160 H78       -17.9560   -0.9980   -2.1670 hn        1 MOL      0.286152
    161 H79       -17.8650   -0.9860   -3.8220 hn        1 MOL      0.286152
    162 N14       -12.8560    2.0700    1.6910 n         1 MOL     -0.013671
    163 C49       -13.5480    2.2170    2.9900 c3        1 MOL      0.186962
    164 C50       -12.6810    2.5980    4.2270 c         1 MOL      0.351924
    165 O22       -13.1800    2.3310    5.3150 o         1 MOL     -0.538543
    166 C51       -14.7580    3.2080    2.8690 c3        1 MOL     -0.063383
    167 C52       -15.5780    3.1310    1.5420 c3        1 MOL     -0.169620
    168 C53       -15.1580    4.0270    0.4000 c         1 MOL      0.732214
    169 O23       -14.0970    3.7320   -0.1170 o         1 MOL     -0.693904
    170 O24       -15.8290    4.9690   -0.0770 o         1 MOL     -0.693904
    171 H80       -13.3030    2.6210    0.9650 hn        1 MOL      0.051348
    172 H81       -13.9890    1.2380    3.2160 h1        1 MOL      0.005661
    173 H82       -14.4900    4.2460    3.0650 hc        1 MOL      0.045622
    174 H83       -15.4110    2.9240    3.6950 hc        1 MOL      0.045622
    175 H84       -16.5930    3.4660    1.7810 hc        1 MOL      0.005756
    176 H85       -15.7970    2.1080    1.2260 hc        1 MOL      0.005756
    177 N15       -11.4420    3.2390    4.2440 n         1 MOL     -0.371607
    178 C54       -10.5190    3.7980    3.1870 c3        1 MOL     -0.064235
    179 H86       -11.0910    4.0150    2.2850 h1        1 MOL      0.063446
    180 H87       -10.0580    4.7150    3.5540 h1        1 MOL      0.063446
    181 H88        -9.7430    3.0670    2.9570 h1        1 MOL      0.063446
    182 H89       -11.0770    3.3170    5.1840 hn        1 MOL      0.287839
    183 Ca1         5.1390   -2.6480    2.6460 Ca        1 MOL      1.746938
    184 O25         4.5200   -0.9390    4.5640 oh        1 MOL     -0.828266
    185 H90         4.1190   -0.7770    5.4200 ho        1 MOL      0.412668
    186 H91         4.7940   -0.0710    4.2580 ho        1 MOL      0.412668
    187 O26         2.7280   -3.7630    3.2470 oh        1 MOL     -0.828266
    188 H92         1.8150   -3.4980    3.1540 ho        1 MOL      0.412668
    189 H93         2.6980   -4.5990    3.7090 ho        1 MOL      0.412668
    190 O27         3.5490   -0.4710    1.4410 oh        1 MOL     -0.828266
    191 H94         2.5960   -0.4360    1.3360 ho        1 MOL      0.412668
    192 H95         3.8110    0.4470    1.4850 ho        1 MOL      0.412668
    193 O28         5.4360   -4.2130    4.7280 oh        1 MOL     -0.828266
    194 H96         4.9910   -4.4620    5.5370 ho        1 MOL      0.412668
    195 H97         6.2200   -4.7550    4.7150 ho        1 MOL      0.412668
    196 O29         8.0080   -3.2230    3.3970 oh        1 MOL     -0.828266
    197 H98         7.9580   -3.9910    3.9620 ho        1 MOL      0.412668
    198 H99         8.8930   -2.8780    3.5260 ho        1 MOL      0.412668
@<TRIPOS>BOND
     1    1    2 1   
     2    1    4 1   
     3    1    5 1   
     4    1    6 1   
     5    2    3 2   
     6    2    7 1   
     7    7    8 1   
     8    7   15 1   
     9    8    9 1   
    10    8   11 1   
    11    8   16 1   
    12    9   10 2   
    13    9   19 1   
    14   11   12 1   
    15   11   17 1   
    16   11   18 1   
    17   12   13 1   
    18   12   14 1   
    19   19   20 1   
    20   19   28 1   
    21   20   21 1   
    22   20   23 1   
    23   20   29 1   
    24   21   22 2   
    25   21   41 1   
    26   23   24 1   
    27   23   30 1   
    28   23   31 1   
    29   24   25 1   
    30   24   32 1   
    31   24   33 1   
    32   25   26 1   
    33   25   34 1   
    34   25   35 1   
    35   26   27 1   
    36   26   36 1   
    37   26   37 1   
    38   27   38 1   
    39   27   39 1   
    40   27   40 1   
    41   41   42 1   
    42   41   49 1   
    43   42   43 1   
    44   42   45 1   
    45   42   50 1   
    46   43   44 2   
    47   43   53 1   
    48   45   46 1   
    49   45   51 1   
    50   45   52 1   
    51   46   47 1   
    52   46   48 1   
    53   53   54 1   
    54   53   57 1   
    55   54   55 1   
    56   54   58 1   
    57   54   59 1   
    58   55   56 2   
    59   55   60 1   
    60   60   61 1   
    61   60   68 1   
    62   61   62 1   
    63   61   64 1   
    64   61   69 1   
    65   62   63 2   
    66   62   72 1   
    67   64   65 1   
    68   64   70 1   
    69   64   71 1   
    70   65   66 1   
    71   65   67 1   
    72   72   73 1   
    73   72   76 1   
    74   73   74 1   
    75   73   77 1   
    76   73   78 1   
    77   74   75 2   
    78   74   79 1   
    79   79   80 1   
    80   79   86 1   
    81   80   81 1   
    82   80   83 1   
    83   80   87 1   
    84   81   82 2   
    85   81   93 1   
    86   83   84 1   
    87   83   85 1   
    88   83   88 1   
    89   84   90 1   
    90   84   91 1   
    91   84   92 1   
    92   85   89 1   
    93   93   94 1   
    94   93  101 1   
    95   94   95 1   
    96   94   97 1   
    97   94  102 1   
    98   95   96 2   
    99   95  112 1   
   100   97   98 1   
   101   97   99 1   
   102   97  103 1   
   103   98  100 1   
   104   98  104 1   
   105   98  105 1   
   106   99  106 1   
   107   99  107 1   
   108   99  108 1   
   109  100  109 1   
   110  100  110 1   
   111  100  111 1   
   112  112  113 1   
   113  112  119 1   
   114  113  114 1   
   115  113  116 1   
   116  113  120 1   
   117  114  115 2   
   118  114  126 1   
   119  116  117 1   
   120  116  118 1   
   121  116  121 1   
   122  117  123 1   
   123  117  124 1   
   124  117  125 1   
   125  118  122 1   
   126  126  127 1   
   127  126  133 1   
   128  127  128 1   
   129  127  130 1   
   130  127  134 1   
   131  128  129 2   
   132  128  140 1   
   133  130  131 1   
   134  130  132 1   
   135  130  135 1   
   136  131  137 1   
   137  131  138 1   
   138  131  139 1   
   139  132  136 1   
   140  140  141 1   
   141  140  149 1   
   142  141  142 1   
   143  141  144 1   
   144  141  150 1   
   145  142  143 2   
   146  142  162 1   
   147  144  145 1   
   148  144  151 1   
   149  144  152 1   
   150  145  146 1   
   151  145  153 1   
   152  145  154 1   
   153  146  147 1   
   154  146  155 1   
   155  146  156 1   
   156  147  148 1   
   157  147  157 1   
   158  147  158 1   
   159  148  159 1   
   160  148  160 1   
   161  148  161 1   
   162  162  163 1   
   163  162  171 1   
   164  163  164 1   
   165  163  166 1   
   166  163  172 1   
   167  164  165 2   
   168  164  177 1   
   169  166  167 1   
   170  166  173 1   
   171  166  174 1   
   172  167  168 1   
   173  167  175 1   
   174  167  176 1   
   175  168  169 1   
   176  168  170 1   
   177  177  178 1   
   178  177  182 1   
   179  178  179 1   
   180  178  180 1   
   181  178  181 1   
   182  184  185 1   
   183  184  186 1   
   184  187  188 1   
   185  187  189 1   
   186  190  191 1   
   187  190  192 1   
   188  193  194 1   
   189  193  195 1   
   190  196  197 1   
   191  196  198 1   
@<TRIPOS>SUBSTRUCTURE
     1 MOL         1 TEMP              0 ****  ****    0 ROOT
