@<TRIPOS>MOLECULE
MOL
  198   191     1     0     0
SMALL
resp


@<TRIPOS>ATOM
      1 C1          3.5960    1.4990   -4.3420 c3        1 MOL     -0.173945
      2 C2          5.0060    0.7950   -4.3040 c         1 MOL      0.556871
      3 O1          5.1410   -0.3580   -4.7180 o         1 MOL     -0.546817
      4 H1          2.8350    0.8070   -3.9820 hc        1 MOL      0.041761
      5 H2          3.6130    2.3820   -3.7040 hc        1 MOL      0.041761
      6 H3          3.3650    1.7930   -5.3650 hc        1 MOL      0.041761
      7 N1          5.9960    1.5060   -3.7570 n         1 MOL     -0.434778
      8 C3          7.2860    0.8660   -3.2690 c3        1 MOL      0.033306
      9 C4          6.9940    0.0720   -1.9810 c         1 MOL      0.498757
     10 O2          5.8180   -0.2460   -1.6350 o         1 MOL     -0.472682
     11 C5          8.2480    2.0700   -3.0510 c3        1 MOL     -0.375835
     12 C6          7.6720    3.1790   -2.2120 c         1 MOL      0.807691
     13 O3          7.1240    4.1790   -2.6920 o         1 MOL     -0.781051
     14 O4          7.7460    3.0190   -0.9380 o         1 MOL     -0.781051
     15 H4          5.8210    2.4500   -3.4450 hn        1 MOL      0.290608
     16 H5          7.7100    0.1800   -4.0090 h1        1 MOL      0.091142
     17 H6          8.4800    2.4850   -4.0300 hc        1 MOL      0.115956
     18 H7          9.1820    1.7230   -2.6100 hc        1 MOL      0.115956
     19 N2          8.0170   -0.2370   -1.1650 n         1 MOL     -0.519060
     20 C7          7.9590   -1.2830   -0.1260 c3        1 MOL      0.056737
     21 C8          7.3730   -0.7610    1.2540 c         1 MOL      0.432286
     22 O5          6.9570   -1.5620    2.0810 o         1 MOL     -0.557476
     23 C9          9.2700   -2.1150   -0.0210 c3        1 MOL     -0.274265
     24 C10         9.4100   -3.0160   -1.2510 c3        1 MOL     -0.053297
     25 C11        10.5920   -3.9260   -1.2450 c3        1 MOL     -0.038599
     26 C12        10.7720   -4.7430   -2.5650 c3        1 MOL      0.052197
     27 N3         11.8830   -5.7870   -2.5230 n4        1 MOL     -0.265739
     28 H8          8.8780    0.2080   -1.4590 hn        1 MOL      0.342813
     29 H9          7.1670   -1.9790   -0.4000 h1        1 MOL      0.124362
     30 H10         9.1320   -2.8020    0.8080 hc        1 MOL      0.122938
     31 H11        10.1500   -1.4990    0.1470 hc        1 MOL      0.122938
     32 H12         9.4000   -2.3860   -2.1340 hc        1 MOL      0.047928
     33 H13         8.5280   -3.6290   -1.4700 hc        1 MOL      0.047928
     34 H14        10.5520   -4.5850   -0.3720 hc        1 MOL      0.050404
     35 H15        11.5500   -3.4400   -1.0610 hc        1 MOL      0.050404
     36 H16        10.9360   -4.0490   -3.3910 hx        1 MOL      0.062714
     37 H17         9.8990   -5.3320   -2.8500 hx        1 MOL      0.062714
     38 H18        11.6000   -6.3890   -3.2870 hn        1 MOL      0.230306
     39 H19        12.8100   -5.4210   -2.7080 hn        1 MOL      0.230306
     40 H20        11.8940   -6.2890   -1.6410 hn        1 MOL      0.230306
     41 N4          7.3610    0.5340    1.4940 n         1 MOL      0.001807
     42 C13         7.0310    1.1620    2.7820 c3        1 MOL     -0.232242
     43 C14         5.6740    1.9620    2.7590 c         1 MOL      0.395830
     44 O6          5.5020    2.7770    1.8780 o         1 MOL     -0.538983
     45 C15         8.1170    2.0120    3.4910 c3        1 MOL     -0.441723
     46 C16         8.9300    2.7930    2.4380 c         1 MOL      0.698103
     47 O7         10.1400    2.5210    2.2870 o         1 MOL     -0.683972
     48 O8          8.4440    3.6450    1.6800 o         1 MOL     -0.683972
     49 H21         7.5960    1.1220    0.6990 hn        1 MOL      0.233987
     50 H22         6.8590    0.3060    3.4350 h1        1 MOL      0.213059
     51 H23         8.7740    1.3880    4.0960 hc        1 MOL      0.142638
     52 H24         7.7450    2.6860    4.2520 hc        1 MOL      0.142638
     53 N5          4.8190    1.9210    3.8170 n         1 MOL     -0.375783
     54 C17         5.0380    1.2110    5.0850 c3        1 MOL     -0.058008
     55 C18         4.8020   -0.2700    5.2190 c         1 MOL      0.477835
     56 O9          5.6000   -0.9500    5.8300 o         1 MOL     -0.507412
     57 H25         4.1840    2.7060    3.7950 hn        1 MOL      0.303889
     58 H26         4.3920    1.7240    5.7910 h1        1 MOL      0.079736
     59 H27         6.0520    1.3550    5.4600 h1        1 MOL      0.079736
     60 N6          3.7150   -0.7510    4.5850 n         1 MOL     -0.286603
     61 C19         3.5870   -2.1220    4.0420 c3        1 MOL      0.163882
     62 C20         3.6740   -2.1440    2.5400 c         1 MOL      0.466372
     63 O10         3.4700   -1.1160    1.8510 o         1 MOL     -0.493725
     64 C21         2.2790   -2.7120    4.6240 c3        1 MOL     -0.357731
     65 C22         2.1940   -2.3420    6.0520 c         1 MOL      0.770288
     66 O11         1.4710   -1.4210    6.3650 o         1 MOL     -0.646187
     67 O12         2.7870   -3.0140    6.9720 o         1 MOL     -0.646187
     68 H28         3.1100   -0.0550    4.1740 hn        1 MOL      0.213484
     69 H29         4.4250   -2.7360    4.3630 h1        1 MOL      0.046525
     70 H30         2.4020   -3.8000    4.5630 hc        1 MOL      0.075137
     71 H31         1.4140   -2.3330    4.0920 hc        1 MOL      0.075137
     72 N7          3.8830   -3.2900    1.9880 n         1 MOL     -0.390731
     73 C23         3.8740   -3.6480    0.5770 c3        1 MOL     -0.212349
     74 C24         2.4600   -3.6380   -0.0660 c         1 MOL      0.766773
     75 O13         1.5060   -3.7970    0.6290 o         1 MOL     -0.558660
     76 H32         3.7700   -4.0570    2.6250 hn        1 MOL      0.299057
     77 H33         4.3920   -4.5820    0.3920 h1        1 MOL      0.106253
     78 H34         4.4200   -2.8200    0.1250 h1        1 MOL      0.106253
     79 N8          2.2340   -3.4190   -1.3760 n         1 MOL     -0.702811
     80 C25         0.9860   -3.7040   -2.0980 c3        1 MOL      0.047263
     81 C26         0.1800   -2.4080   -2.1760 c         1 MOL      0.662616
     82 O14         0.7090   -1.3240   -2.0140 o         1 MOL     -0.505175
     83 C27         1.1550   -4.3430   -3.4910 c3        1 MOL      0.457461
     84 C28         1.7710   -3.3970   -4.5690 c3        1 MOL     -0.183425
     85 O15         1.8900   -5.5120   -3.2950 oh        1 MOL     -0.660364
     86 H35         3.0180   -3.0660   -1.9130 hn        1 MOL      0.342722
     87 H36         0.3640   -4.3750   -1.5010 h1        1 MOL      0.038642
     88 H37         0.1580   -4.6060   -3.8520 h1        1 MOL     -0.080135
     89 H38         1.3870   -6.1780   -2.8340 ho        1 MOL      0.403005
     90 H39         2.6520   -2.8890   -4.1790 hc        1 MOL      0.053814
     91 H40         1.9790   -4.0940   -5.3870 hc        1 MOL      0.053814
     92 H41         1.0100   -2.7190   -4.9430 hc        1 MOL      0.053814
     93 N9         -1.1030   -2.4400   -2.5420 n         1 MOL     -0.541168
     94 C29        -1.9700   -1.2440   -2.9150 c3        1 MOL     -0.117076
     95 C30        -2.8810   -0.7650   -1.7910 c         1 MOL      0.658350
     96 O16        -3.2210    0.4000   -1.6540 o         1 MOL     -0.554590
     97 C31        -2.8340   -1.6650   -4.1480 c3        1 MOL     -0.079819
     98 C32        -1.8650   -2.2200   -5.3270 c3        1 MOL      0.032382
     99 C33        -3.8480   -0.5100   -4.4980 c3        1 MOL     -0.009894
    100 C34        -2.5190   -2.3660   -6.6680 c3        1 MOL     -0.482710
    101 H42        -1.5320   -3.3070   -2.8020 hn        1 MOL      0.249761
    102 H43        -1.3210   -0.4310   -3.2190 h1        1 MOL      0.117324
    103 H44        -3.5130   -2.5120   -4.0070 hc        1 MOL      0.068668
    104 H45        -1.5310   -3.2420   -5.1530 hc        1 MOL      0.074690
    105 H46        -1.0800   -1.4890   -5.4770 hc        1 MOL      0.074690
    106 H47        -3.5240    0.5280   -4.4830 hc        1 MOL      0.027106
    107 H48        -4.3360   -0.7110   -5.4500 hc        1 MOL      0.027106
    108 H49        -4.6650   -0.4810   -3.7820 hc        1 MOL      0.027106
    109 H50        -1.8190   -2.6660   -7.4440 hc        1 MOL      0.121813
    110 H51        -3.3060   -3.1010   -6.4980 hc        1 MOL      0.121813
    111 H52        -2.7790   -1.4050   -7.1190 hc        1 MOL      0.121813
    112 N10        -3.1980   -1.5870   -0.8300 n         1 MOL     -0.449779
    113 C35        -4.2910   -1.4260    0.1470 c3        1 MOL     -0.064839
    114 C36        -5.4350   -2.4140   -0.1040 c         1 MOL      0.583192
    115 O17        -5.2050   -3.5890   -0.4560 o         1 MOL     -0.545151
    116 C37        -3.7530   -1.4600    1.5620 c3        1 MOL      0.563478
    117 C38        -3.1360   -2.7680    1.9950 c3        1 MOL     -0.391701
    118 O18        -2.7640   -0.5360    1.7160 oh        1 MOL     -0.656069
    119 H53        -2.7450   -2.4750   -1.0080 hn        1 MOL      0.224183
    120 H54        -4.7820   -0.4560    0.0950 h1        1 MOL      0.089554
    121 H55        -4.5780   -1.3630    2.2620 h1        1 MOL     -0.029675
    122 H56        -1.9590   -0.9470    1.3930 ho        1 MOL      0.438220
    123 H57        -2.7270   -2.5050    2.9670 hc        1 MOL      0.091104
    124 H58        -3.9010   -3.5390    2.0760 hc        1 MOL      0.091104
    125 H59        -2.3060   -3.0100    1.3430 hc        1 MOL      0.091104
    126 N11        -6.6620   -2.1010    0.3230 n         1 MOL     -0.546476
    127 C39        -7.8090   -2.9680    0.2440 c3        1 MOL      0.037195
    128 C40        -9.1280   -2.2370   -0.0390 c         1 MOL      0.654527
    129 O19        -9.8450   -2.6370   -0.9180 o         1 MOL     -0.571627
    130 C41        -8.0390   -3.8110    1.4940 c3        1 MOL      0.229894
    131 C42        -9.1750   -4.8620    1.3730 c3        1 MOL     -0.174744
    132 O20        -8.2040   -3.0980    2.6890 oh        1 MOL     -0.609878
    133 H60        -6.7720   -1.2500    0.8440 hn        1 MOL      0.251670
    134 H61        -7.6210   -3.6360   -0.5990 h1        1 MOL      0.096523
    135 H62        -7.1100   -4.3760    1.5750 h1        1 MOL      0.038922
    136 H63        -7.3990   -3.2880    3.1690 ho        1 MOL      0.408010
    137 H64        -9.2180   -5.5630    2.1940 hc        1 MOL      0.047542
    138 H65       -10.1560   -4.4190    1.1570 hc        1 MOL      0.047542
    139 H66        -9.0460   -5.4430    0.4640 hc        1 MOL      0.047542
    140 N12        -9.4080   -1.1360    0.6930 n         1 MOL     -0.432964
    141 C43       -10.3900   -0.1820    0.4110 c3        1 MOL      0.076311
    142 C44        -9.7830    1.2100    0.4040 c         1 MOL      0.341102
    143 O21        -8.8400    1.4130    1.1480 o         1 MOL     -0.466497
    144 C45       -11.5730   -0.2000    1.4950 c3        1 MOL     -0.295772
    145 C46       -12.3740   -1.4950    1.3690 c3        1 MOL      0.054442
    146 C47       -13.5940   -1.4830    2.3340 c3        1 MOL     -0.109740
    147 C48       -14.4030   -0.1480    2.4190 c3        1 MOL      0.159784
    148 N13       -15.3940   -0.2950    3.4950 n4        1 MOL     -0.339834
    149 H67        -8.8910   -0.9310    1.5250 hn        1 MOL      0.264484
    150 H68       -10.9090   -0.4430   -0.5160 h1        1 MOL      0.056472
    151 H69       -12.1650    0.6710    1.2390 hc        1 MOL      0.115843
    152 H70       -11.2520    0.0430    2.5080 hc        1 MOL      0.115843
    153 H71       -11.7260   -2.3270    1.6280 hc        1 MOL      0.050336
    154 H72       -12.7410   -1.5920    0.3460 hc        1 MOL      0.050336
    155 H73       -13.2470   -1.7790    3.3260 hc        1 MOL      0.036575
    156 H74       -14.2540   -2.3140    2.0680 hc        1 MOL      0.036575
    157 H75       -14.8560   -0.0080    1.4350 hx        1 MOL      0.032501
    158 H76       -13.7460    0.7050    2.6080 hx        1 MOL      0.032501
    159 H77       -15.9830    0.5240    3.5560 hn        1 MOL      0.282644
    160 H78       -15.9620   -1.0810    3.2240 hn        1 MOL      0.282644
    161 H79       -14.8820   -0.4800    4.3480 hn        1 MOL      0.282644
    162 N14       -10.3610    2.1790   -0.2920 n         1 MOL     -0.228281
    163 C49        -9.7890    3.5000   -0.4000 c3        1 MOL     -0.008998
    164 C50        -8.3370    3.5060   -0.7290 c         1 MOL      0.474559
    165 O22        -7.6070    4.2600   -0.1470 o         1 MOL     -0.506279
    166 C51       -10.6480    4.3550   -1.3150 c3        1 MOL      0.220770
    167 C52       -11.9900    4.5670   -0.5790 c3        1 MOL     -0.251222
    168 C53       -12.7770    5.6960   -1.2610 c         1 MOL      0.689867
    169 O23       -13.3030    5.4830   -2.3520 o         1 MOL     -0.658205
    170 O24       -12.6690    6.8090   -0.8090 o         1 MOL     -0.658205
    171 H80       -11.2540    1.9880   -0.7010 hn        1 MOL      0.249088
    172 H81        -9.8570    3.8630    0.6260 h1        1 MOL      0.075786
    173 H82       -10.8400    3.7910   -2.2300 hc        1 MOL      0.003727
    174 H83       -10.1580    5.3030   -1.5260 hc        1 MOL      0.003727
    175 H84       -11.7680    4.9020    0.4290 hc        1 MOL     -0.008142
    176 H85       -12.5770    3.6570   -0.4370 hc        1 MOL     -0.008142
    177 N15        -7.7840    2.7520   -1.7440 n         1 MOL     -0.424757
    178 C54        -8.4890    2.3740   -2.9880 c3        1 MOL      0.109476
    179 H86        -9.3570    1.7620   -2.7410 h1        1 MOL     -0.008165
    180 H87        -8.8160    3.2740   -3.5090 h1        1 MOL     -0.008165
    181 H88        -7.8160    1.8060   -3.6300 h1        1 MOL     -0.008165
    182 H89        -6.8060    2.5150   -1.7170 hn        1 MOL      0.298807
    183 Ca1         6.4430    4.7090    0.3720 Ca        1 MOL      1.745982
    184 O25         7.9980    6.2220   -1.5330 oh        1 MOL     -0.839522
    185 H90         8.2360    6.9410   -2.1220 ho        1 MOL      0.419394
    186 H91         7.8110    5.4830   -2.1190 ho        1 MOL      0.419394
    187 O26         7.0250    6.9170    1.9820 oh        1 MOL     -0.839522
    188 H92         6.3950    7.0820    2.6810 ho        1 MOL      0.419394
    189 H93         7.8440    7.2760    2.3130 ho        1 MOL      0.419394
    190 O27         4.6180    3.3760   -0.8570 oh        1 MOL     -0.839522
    191 H94         4.1120    3.7650   -1.5590 ho        1 MOL      0.419394
    192 H95         4.4860    2.4310   -0.9620 ho        1 MOL      0.419394
    193 O28         5.0090    6.3710   -1.2550 oh        1 MOL     -0.839522
    194 H96         5.1520    6.5760   -2.1860 ho        1 MOL      0.419394
    195 H97         4.0650    6.3210   -1.1620 ho        1 MOL      0.419394
    196 O29         4.3030    5.6450    1.7400 oh        1 MOL     -0.839522
    197 H98         3.3930    5.4170    1.5470 ho        1 MOL      0.419394
    198 H99         4.2390    6.4320    2.2700 ho        1 MOL      0.419394
@<TRIPOS>BOND
     1    1    2 1   
     2    1    4 1   
     3    1    5 1   
     4    1    6 1   
     5    2    3 2   
     6    2    7 1   
     7    7    8 1   
     8    7   15 1   
     9    8    9 1   
    10    8   11 1   
    11    8   16 1   
    12    9   10 2   
    13    9   19 1   
    14   11   12 1   
    15   11   17 1   
    16   11   18 1   
    17   12   13 1   
    18   12   14 1   
    19   19   20 1   
    20   19   28 1   
    21   20   21 1   
    22   20   23 1   
    23   20   29 1   
    24   21   22 2   
    25   21   41 1   
    26   23   24 1   
    27   23   30 1   
    28   23   31 1   
    29   24   25 1   
    30   24   32 1   
    31   24   33 1   
    32   25   26 1   
    33   25   34 1   
    34   25   35 1   
    35   26   27 1   
    36   26   36 1   
    37   26   37 1   
    38   27   38 1   
    39   27   39 1   
    40   27   40 1   
    41   41   42 1   
    42   41   49 1   
    43   42   43 1   
    44   42   45 1   
    45   42   50 1   
    46   43   44 2   
    47   43   53 1   
    48   45   46 1   
    49   45   51 1   
    50   45   52 1   
    51   46   47 1   
    52   46   48 1   
    53   53   54 1   
    54   53   57 1   
    55   54   55 1   
    56   54   58 1   
    57   54   59 1   
    58   55   56 2   
    59   55   60 1   
    60   60   61 1   
    61   60   68 1   
    62   61   62 1   
    63   61   64 1   
    64   61   69 1   
    65   62   63 2   
    66   62   72 1   
    67   64   65 1   
    68   64   70 1   
    69   64   71 1   
    70   65   66 1   
    71   65   67 1   
    72   72   73 1   
    73   72   76 1   
    74   73   74 1   
    75   73   77 1   
    76   73   78 1   
    77   74   75 2   
    78   74   79 1   
    79   79   80 1   
    80   79   86 1   
    81   80   81 1   
    82   80   83 1   
    83   80   87 1   
    84   81   82 2   
    85   81   93 1   
    86   83   84 1   
    87   83   85 1   
    88   83   88 1   
    89   84   90 1   
    90   84   91 1   
    91   84   92 1   
    92   85   89 1   
    93   93   94 1   
    94   93  101 1   
    95   94   95 1   
    96   94   97 1   
    97   94  102 1   
    98   95   96 2   
    99   95  112 1   
   100   97   98 1   
   101   97   99 1   
   102   97  103 1   
   103   98  100 1   
   104   98  104 1   
   105   98  105 1   
   106   99  106 1   
   107   99  107 1   
   108   99  108 1   
   109  100  109 1   
   110  100  110 1   
   111  100  111 1   
   112  112  113 1   
   113  112  119 1   
   114  113  114 1   
   115  113  116 1   
   116  113  120 1   
   117  114  115 2   
   118  114  126 1   
   119  116  117 1   
   120  116  118 1   
   121  116  121 1   
   122  117  123 1   
   123  117  124 1   
   124  117  125 1   
   125  118  122 1   
   126  126  127 1   
   127  126  133 1   
   128  127  128 1   
   129  127  130 1   
   130  127  134 1   
   131  128  129 2   
   132  128  140 1   
   133  130  131 1   
   134  130  132 1   
   135  130  135 1   
   136  131  137 1   
   137  131  138 1   
   138  131  139 1   
   139  132  136 1   
   140  140  141 1   
   141  140  149 1   
   142  141  142 1   
   143  141  144 1   
   144  141  150 1   
   145  142  143 2   
   146  142  162 1   
   147  144  145 1   
   148  144  151 1   
   149  144  152 1   
   150  145  146 1   
   151  145  153 1   
   152  145  154 1   
   153  146  147 1   
   154  146  155 1   
   155  146  156 1   
   156  147  148 1   
   157  147  157 1   
   158  147  158 1   
   159  148  159 1   
   160  148  160 1   
   161  148  161 1   
   162  162  163 1   
   163  162  171 1   
   164  163  164 1   
   165  163  166 1   
   166  163  172 1   
   167  164  165 2   
   168  164  177 1   
   169  166  167 1   
   170  166  173 1   
   171  166  174 1   
   172  167  168 1   
   173  167  175 1   
   174  167  176 1   
   175  168  169 1   
   176  168  170 1   
   177  177  178 1   
   178  177  182 1   
   179  178  179 1   
   180  178  180 1   
   181  178  181 1   
   182  184  185 1   
   183  184  186 1   
   184  187  188 1   
   185  187  189 1   
   186  190  191 1   
   187  190  192 1   
   188  193  194 1   
   189  193  195 1   
   190  196  197 1   
   191  196  198 1   
@<TRIPOS>SUBSTRUCTURE
     1 MOL         1 TEMP              0 ****  ****    0 ROOT
