@<TRIPOS>MOLECULE
MOL
  182   178     1     0     0
SMALL
resp


@<TRIPOS>ATOM
      1 C1          1.0690   -3.8800    6.7350 c3        1 MOL     -0.506226
      2 C2          1.0440   -4.0510    5.2230 c         1 MOL      0.764642
      3 O1          0.0780   -4.5320    4.5990 o         1 MOL     -0.598135
      4 H1          0.8190   -4.8280    7.2110 hc        1 MOL      0.143077
      5 H2          2.0640   -3.5670    7.0500 hc        1 MOL      0.143077
      6 H3          0.3400   -3.1240    7.0270 hc        1 MOL      0.143077
      7 N1          2.1150   -3.6620    4.4590 n         1 MOL     -0.581413
      8 C3          2.0400   -3.3130    3.0470 c3        1 MOL     -0.044522
      9 C4          2.1010   -4.5020    2.1020 c         1 MOL      0.687057
     10 O2          3.0940   -5.2480    2.0180 o         1 MOL     -0.560059
     11 C5          3.1330   -2.2910    2.6820 c3        1 MOL     -0.064435
     12 C6          2.8950   -1.4940    1.4370 c         1 MOL      0.582900
     13 O3          3.6010   -0.4720    1.1200 o         1 MOL     -0.723945
     14 O4          2.1420   -1.9190    0.5340 o         1 MOL     -0.723945
     15 H4          2.8760   -3.2300    4.9600 hn        1 MOL      0.311791
     16 H5          1.0610   -2.8490    2.9120 h1        1 MOL     -0.000780
     17 H6          4.0670   -2.8320    2.5290 hc        1 MOL      0.053720
     18 H7          3.2340   -1.6090    3.5340 hc        1 MOL      0.053720
     19 N2          1.1390   -4.6660    1.1640 n         1 MOL     -0.429732
     20 C7          0.9770   -5.8510    0.3220 c3        1 MOL      0.033894
     21 C8          1.9940   -5.8790   -0.8200 c         1 MOL      0.443768
     22 O5          2.4420   -6.9820   -1.1650 o         1 MOL     -0.555908
     23 C9         -0.4740   -5.8530   -0.2120 c3        1 MOL     -0.308617
     24 C10        -0.6960   -6.7680   -1.3930 c3        1 MOL      0.268940
     25 C11        -2.1590   -6.8340   -1.7170 c3        1 MOL     -0.185819
     26 C12        -2.3320   -7.7360   -2.9470 c3        1 MOL      0.159528
     27 N3         -3.6490   -8.3660   -2.8680 n4        1 MOL     -0.376558
     28 H8          0.4930   -3.9070    1.0570 hn        1 MOL      0.280786
     29 H9          1.0220   -6.7570    0.9200 h1        1 MOL      0.136062
     30 H10        -0.7450   -4.8710   -0.5990 hc        1 MOL      0.095582
     31 H11        -1.1680   -6.1060    0.5880 hc        1 MOL      0.095582
     32 H12        -0.3770   -7.7850   -1.1580 hc        1 MOL     -0.028229
     33 H13        -0.2450   -6.4160   -2.3130 hc        1 MOL     -0.028229
     34 H14        -2.4530   -5.8350   -2.0330 hc        1 MOL      0.058051
     35 H15        -2.6840   -7.2100   -0.8360 hc        1 MOL      0.058051
     36 H16        -1.5950   -8.5310   -3.0150 hx        1 MOL      0.062444
     37 H17        -2.0930   -7.1870   -3.8570 hx        1 MOL      0.062444
     38 H18        -3.9190   -9.0160   -3.5970 hn        1 MOL      0.291963
     39 H19        -3.7370   -8.8600   -1.9840 hn        1 MOL      0.291963
     40 H20        -4.3640   -7.6480   -2.8980 hn        1 MOL      0.291963
     41 N4          2.4590   -4.6730   -1.2250 n         1 MOL     -0.365058
     42 C13         3.4240   -4.4070   -2.2490 c3        1 MOL      0.239741
     43 C14         4.7940   -3.9040   -1.7830 c         1 MOL      0.396132
     44 O6          5.7810   -4.0770   -2.5420 o         1 MOL     -0.544585
     45 C15         2.8610   -3.4590   -3.3190 c3        1 MOL     -0.366102
     46 C16         2.4050   -2.1410   -2.7930 c         1 MOL      0.775408
     47 O7          1.2470   -1.8950   -2.4540 o         1 MOL     -0.738946
     48 O8          3.2610   -1.2720   -2.5590 o         1 MOL     -0.738946
     49 H21         2.1150   -3.9100   -0.6640 hn        1 MOL      0.285287
     50 H22         3.6060   -5.3030   -2.8480 h1        1 MOL      0.070094
     51 H23         2.0170   -4.0210   -3.7220 hc        1 MOL      0.085615
     52 H24         3.5760   -3.3390   -4.1340 hc        1 MOL      0.085615
     53 N5          4.9630   -3.3890   -0.5630 n         1 MOL     -0.213478
     54 C17         6.3100   -2.9190   -0.1280 c3        1 MOL     -0.133687
     55 C18         6.7260   -1.5380   -0.6160 c         1 MOL      0.454064
     56 O9          7.7280   -0.9580   -0.2010 o         1 MOL     -0.581854
     57 H25         4.1980   -3.1720    0.0620 hn        1 MOL      0.178050
     58 H26         7.0800   -3.6510   -0.3780 h1        1 MOL      0.114869
     59 H27         6.3360   -2.9450    0.9530 h1        1 MOL      0.114869
     60 N6          5.9460   -0.8470   -1.4250 n         1 MOL     -0.084014
     61 C19         6.2990    0.3850   -2.1210 c3        1 MOL      0.133961
     62 C20         5.3110    1.4900   -1.9190 c         1 MOL      0.179762
     63 O10         4.1980    1.1430   -1.4890 o         1 MOL     -0.349263
     64 C21         6.5120   -0.0810   -3.5950 c3        1 MOL     -0.329652
     65 C22         5.5970    0.6310   -4.5790 c         1 MOL      0.741036
     66 N7          4.3930    0.1020   -4.7590 n         1 MOL     -0.829832
     67 O11         5.8850    1.6660   -5.1040 o         1 MOL     -0.619311
     68 H28         5.0570   -1.2550   -1.6820 hn        1 MOL      0.164541
     69 H29         7.2110    0.7380   -1.6500 h1        1 MOL      0.059060
     70 H30         6.4520   -1.1710   -3.6760 hc        1 MOL      0.091597
     71 H31         7.4820    0.2590   -3.9680 hc        1 MOL      0.091597
     72 H32         4.1430   -0.4440   -3.9410 hn        1 MOL      0.369758
     73 H33         3.6900    0.4410   -5.3980 hn        1 MOL      0.369758
     74 N8          5.6870    2.7400   -2.2420 n         1 MOL     -0.084297
     75 C23         4.7410    3.8750   -2.2450 c3        1 MOL     -0.468389
     76 C24         4.3900    4.2130   -0.7930 c         1 MOL      0.768323
     77 O12         5.1960    4.2060    0.0530 o         1 MOL     -0.512127
     78 H34         6.6620    2.9230   -2.4380 hn        1 MOL      0.245980
     79 H35         3.8980    3.5120   -2.8240 h1        1 MOL      0.178539
     80 H36         5.3340    4.6750   -2.6990 h1        1 MOL      0.178539
     81 N9          3.0960    4.6080   -0.6460 n         1 MOL     -0.685409
     82 C25         2.4700    4.7220    0.6240 c3        1 MOL      0.285246
     83 C26         2.1400    3.3070    1.2440 c         1 MOL      0.622012
     84 O13         2.6620    2.2880    0.6900 o         1 MOL     -0.587752
     85 C27         1.2500    5.6850    0.6020 c3        1 MOL     -0.321662
     86 C28         1.6420    7.0590    0.1800 ca        1 MOL      0.147793
     87 C29         0.9520    7.7160   -0.9290 ca        1 MOL     -0.212288
     88 C30         2.7870    7.6950    0.6920 ca        1 MOL     -0.212288
     89 C31         1.3540    9.0330   -1.3400 ca        1 MOL     -0.194699
     90 C32         3.2770    8.8620    0.1290 ca        1 MOL     -0.194699
     91 C33         2.5120    9.5930   -0.7620 ca        1 MOL      0.291963
     92 O14         2.9150   10.8350   -1.2910 oh        1 MOL     -0.530158
     93 H37         2.4800    4.4970   -1.4450 hn        1 MOL      0.332821
     94 H38         3.1740    5.0550    1.3880 h1        1 MOL      0.044412
     95 H39         0.8770    5.8460    1.6220 hc        1 MOL      0.097084
     96 H40         0.4780    5.2580   -0.0320 hc        1 MOL      0.097084
     97 H41         0.1440    7.1940   -1.4260 ha        1 MOL      0.143393
     98 H42         3.4720    7.2040    1.3550 ha        1 MOL      0.143393
     99 H43         0.7950    9.5750   -2.0880 ha        1 MOL      0.147666
    100 H44         4.1920    9.3050    0.4790 ha        1 MOL      0.147666
    101 H45         3.8380   11.0960   -1.2620 ho        1 MOL      0.389513
    102 N10         1.4290    3.2660    2.4220 n         1 MOL     -0.647639
    103 C34         1.0160    2.1460    3.3370 c3        1 MOL      0.170822
    104 C35         0.2890    1.0820    2.5250 c         1 MOL      0.338578
    105 O15         0.7790    0.4550    1.5930 o         1 MOL     -0.147893
    106 C36         2.1840    1.4540    4.1380 c3        1 MOL      0.263671
    107 C37         1.7990    0.2960    5.1200 c3        1 MOL     -0.102395
    108 C38         3.0500    2.4910    4.8810 c3        1 MOL     -0.369284
    109 C39         0.8060    0.7370    6.2340 c3        1 MOL     -0.073550
    110 H46         1.0210    4.1480    2.6960 hn        1 MOL      0.284886
    111 H47         0.3210    2.5900    4.0510 h1        1 MOL      0.057386
    112 H48         2.8650    0.9480    3.4590 hc        1 MOL      0.000222
    113 H49         2.7330   -0.0250    5.5790 hc        1 MOL      0.033296
    114 H50         1.3730   -0.5620    4.5940 hc        1 MOL      0.033296
    115 H51         3.9110    1.9360    5.2620 hc        1 MOL      0.094350
    116 H52         3.5120    3.2390    4.2350 hc        1 MOL      0.094350
    117 H53         2.6040    2.9620    5.7490 hc        1 MOL      0.094350
    118 H54         1.1700    1.5150    6.9160 hc        1 MOL      0.010791
    119 H55         0.0030    1.2520    5.7010 hc        1 MOL      0.010791
    120 H56         0.4610   -0.1200    6.8090 hc        1 MOL      0.010791
    121 N11        -0.8870    0.6290    3.0450 n         1 MOL     -0.604059
    122 C40        -1.4990   -0.6790    2.7670 c3        1 MOL     -0.020445
    123 C41        -2.7670   -0.5600    1.9020 c         1 MOL      0.702403
    124 O16        -3.2070   -1.5040    1.2720 o         1 MOL     -0.606324
    125 C42        -1.6640   -1.5400    4.0030 c3        1 MOL      0.203820
    126 O17        -2.3150   -0.7760    4.9630 oh        1 MOL     -0.617654
    127 H57        -1.2770    1.2720    3.7180 hn        1 MOL      0.328203
    128 H58        -0.8200   -1.2770    2.1590 h1        1 MOL      0.071875
    129 H59        -0.6790   -1.8360    4.3790 h1        1 MOL      0.040790
    130 H60        -2.2160   -2.4250    3.7010 h1        1 MOL      0.040790
    131 H61        -2.2610   -1.2640    5.7900 ho        1 MOL      0.407869
    132 N12        -3.3980    0.6130    1.8390 n         1 MOL     -0.496626
    133 C43        -4.5190    0.8570    0.9530 c3        1 MOL      0.005231
    134 C44        -4.0790    1.0370   -0.4530 c         1 MOL      0.783858
    135 O18        -2.8780    1.3270   -0.6130 o         1 MOL     -0.694337
    136 C45        -5.2850    2.0990    1.5250 c3        1 MOL     -0.188359
    137 H62        -3.0170    1.3580    2.4130 hn        1 MOL      0.309233
    138 H63        -5.2230    0.0340    1.0530 h1        1 MOL      0.107651
    139 H64        -5.9520    1.8040    2.3320 hc        1 MOL      0.070312
    140 H65        -4.6190    2.8340    1.9820 hc        1 MOL      0.070312
    141 H66        -6.0000    2.4650    0.7990 hc        1 MOL      0.070312
    142 N13        -4.8910    0.8450   -1.4420 n         1 MOL     -0.726832
    143 C46        -6.2930    0.4100   -1.4270 c3        1 MOL      0.441118
    144 C47        -7.2220    1.4730   -2.0020 c         1 MOL      0.533027
    145 O19        -6.8120    1.9980   -3.0470 o         1 MOL     -0.553326
    146 C48        -6.4140   -0.8900   -2.1760 c3        1 MOL     -0.324058
    147 H67        -4.5170    0.9250   -2.3790 hn        1 MOL      0.352108
    148 H68        -6.4950    0.1910   -0.3740 h1        1 MOL     -0.024666
    149 H69        -5.7080   -1.6680   -1.9170 hc        1 MOL      0.094186
    150 H70        -7.3700   -1.3760   -2.0100 hc        1 MOL      0.094186
    151 H71        -6.3250   -0.6860   -3.2450 hc        1 MOL      0.094186
    152 N14        -8.4420    1.7200   -1.5330 n         1 MOL     -0.625430
    153 C49        -9.1350    1.0770   -0.3940 c3        1 MOL     -0.071270
    154 C50        -9.1180    1.9920    0.8590 c         1 MOL      0.391551
    155 O20        -8.7790    1.6160    1.9630 o         1 MOL     -0.496790
    156 C51       -10.5760    0.6390   -0.8470 c3        1 MOL      0.121130
    157 C52       -10.5070   -0.2760   -2.0970 c3        1 MOL     -0.176085
    158 C53       -11.8330   -0.8520   -2.6970 c         1 MOL      0.658630
    159 O21       -12.0330   -2.0870   -2.4770 o         1 MOL     -0.662440
    160 O22       -12.5410   -0.1430   -3.4550 o         1 MOL     -0.662440
    161 H72        -8.9760    2.3970   -2.0550 hn        1 MOL      0.375868
    162 H73        -8.5230    0.2260   -0.0890 h1        1 MOL      0.111765
    163 H74       -11.2990    1.4470   -0.9260 hc        1 MOL      0.005344
    164 H75       -11.0130   -0.1010   -0.1740 hc        1 MOL      0.005344
    165 H76        -9.7460   -1.0210   -1.8810 hc        1 MOL      0.023100
    166 H77       -10.0730    0.3520   -2.8690 hc        1 MOL      0.023100
    167 N15        -9.4160    3.2740    0.6990 n         1 MOL     -0.196538
    168 C54        -9.3680    4.2440    1.7820 c3        1 MOL     -0.380769
    169 H78        -9.6100    5.2340    1.3940 h1        1 MOL      0.149038
    170 H79       -10.0900    3.9690    2.5500 h1        1 MOL      0.149038
    171 H80        -8.3670    4.2600    2.2130 h1        1 MOL      0.149038
    172 H81        -9.7060    3.6030   -0.2050 hn        1 MOL      0.251488
    173 Ca1         1.8450    0.3490   -0.7560 Ca        1 MOL      1.746508
    174 O23         0.2120    2.6250   -0.8200 oh        1 MOL     -0.923506
    175 H82        -0.7330    2.4940   -0.7190 ho        1 MOL      0.433076
    176 H83         0.3030    3.0990   -1.6480 ho        1 MOL      0.433076
    177 O24        -0.6380   -0.6660   -0.7060 oh        1 MOL     -0.923506
    178 H84        -1.0320   -1.4470   -1.0970 ho        1 MOL      0.433076
    179 H85        -1.3260   -0.0140   -0.7350 ho        1 MOL      0.433076
    180 O25         1.8100    1.5870   -3.1810 oh        1 MOL     -0.923506
    181 H86         2.0450    2.3050   -3.7780 ho        1 MOL      0.433076
    182 H87         1.1430    1.0930   -3.6480 ho        1 MOL      0.433076
@<TRIPOS>BOND
     1    1    2 1   
     2    1    4 1   
     3    1    5 1   
     4    1    6 1   
     5    2    3 2   
     6    2    7 1   
     7    7    8 1   
     8    7   15 1   
     9    8    9 1   
    10    8   11 1   
    11    8   16 1   
    12    9   10 2   
    13    9   19 1   
    14   11   12 1   
    15   11   17 1   
    16   11   18 1   
    17   12   13 1   
    18   12   14 1   
    19   19   20 1   
    20   19   28 1   
    21   20   21 1   
    22   20   23 1   
    23   20   29 1   
    24   21   22 2   
    25   21   41 1   
    26   23   24 1   
    27   23   30 1   
    28   23   31 1   
    29   24   25 1   
    30   24   32 1   
    31   24   33 1   
    32   25   26 1   
    33   25   34 1   
    34   25   35 1   
    35   26   27 1   
    36   26   36 1   
    37   26   37 1   
    38   27   38 1   
    39   27   39 1   
    40   27   40 1   
    41   41   42 1   
    42   41   49 1   
    43   42   43 1   
    44   42   45 1   
    45   42   50 1   
    46   43   44 2   
    47   43   53 1   
    48   45   46 1   
    49   45   51 1   
    50   45   52 1   
    51   46   47 1   
    52   46   48 1   
    53   53   54 1   
    54   53   57 1   
    55   54   55 1   
    56   54   58 1   
    57   54   59 1   
    58   55   56 2   
    59   55   60 1   
    60   60   61 1   
    61   60   68 1   
    62   61   62 1   
    63   61   64 1   
    64   61   69 1   
    65   62   63 2   
    66   62   74 1   
    67   64   65 1   
    68   64   70 1   
    69   64   71 1   
    70   65   66 1   
    71   65   67 2   
    72   66   72 1   
    73   66   73 1   
    74   74   75 1   
    75   74   78 1   
    76   75   76 1   
    77   75   79 1   
    78   75   80 1   
    79   76   77 2   
    80   76   81 1   
    81   81   82 1   
    82   81   93 1   
    83   82   83 1   
    84   82   85 1   
    85   82   94 1   
    86   83   84 2   
    87   83  102 1   
    88   85   86 1   
    89   85   95 1   
    90   85   96 1   
    91   86   87 ar  
    92   86   88 ar  
    93   87   89 ar  
    94   87   97 1   
    95   88   90 ar  
    96   88   98 1   
    97   89   91 ar  
    98   89   99 1   
    99   90   91 ar  
   100   90  100 1   
   101   91   92 1   
   102   92  101 1   
   103  102  103 1   
   104  102  110 1   
   105  103  104 1   
   106  103  106 1   
   107  103  111 1   
   108  104  105 2   
   109  104  121 1   
   110  106  107 1   
   111  106  108 1   
   112  106  112 1   
   113  107  109 1   
   114  107  113 1   
   115  107  114 1   
   116  108  115 1   
   117  108  116 1   
   118  108  117 1   
   119  109  118 1   
   120  109  119 1   
   121  109  120 1   
   122  121  122 1   
   123  121  127 1   
   124  122  123 1   
   125  122  125 1   
   126  122  128 1   
   127  123  124 2   
   128  123  132 1   
   129  125  126 1   
   130  125  129 1   
   131  125  130 1   
   132  126  131 1   
   133  132  133 1   
   134  132  137 1   
   135  133  134 1   
   136  133  136 1   
   137  133  138 1   
   138  134  135 2   
   139  134  142 1   
   140  136  139 1   
   141  136  140 1   
   142  136  141 1   
   143  142  143 1   
   144  142  147 1   
   145  143  144 1   
   146  143  146 1   
   147  143  148 1   
   148  144  145 2   
   149  144  152 1   
   150  146  149 1   
   151  146  150 1   
   152  146  151 1   
   153  152  153 1   
   154  152  161 1   
   155  153  154 1   
   156  153  156 1   
   157  153  162 1   
   158  154  155 2   
   159  154  167 1   
   160  156  157 1   
   161  156  163 1   
   162  156  164 1   
   163  157  158 1   
   164  157  165 1   
   165  157  166 1   
   166  158  159 1   
   167  158  160 1   
   168  167  168 1   
   169  167  172 1   
   170  168  169 1   
   171  168  170 1   
   172  168  171 1   
   173  174  175 1   
   174  174  176 1   
   175  177  178 1   
   176  177  179 1   
   177  180  181 1   
   178  180  182 1   
@<TRIPOS>SUBSTRUCTURE
     1 MOL         1 TEMP              0 ****  ****    0 ROOT
