@<TRIPOS>MOLECULE
MOL
  192   187     1     0     0
SMALL
resp


@<TRIPOS>ATOM
      1 C1          9.8540    0.0810    2.3170 c3        1 MOL     -0.592659
      2 C2          8.5980   -0.0900    1.3670 c         1 MOL      0.828836
      3 O1          7.4770    0.0310    1.8210 o         1 MOL     -0.675905
      4 H1          9.7310    0.9800    2.9220 hc        1 MOL      0.150715
      5 H2          9.9360   -0.7870    2.9710 hc        1 MOL      0.150715
      6 H3         10.7570    0.1700    1.7140 hc        1 MOL      0.150715
      7 N1          8.7660   -0.3030    0.0400 n         1 MOL     -0.699820
      8 C3          7.6740   -0.2850   -0.9950 c3        1 MOL      0.239433
      9 C4          6.8880   -1.5870   -1.0410 c         1 MOL      0.497994
     10 O2          6.4100   -2.0400   -2.0620 o         1 MOL     -0.464321
     11 C5          8.1730    0.1910   -2.3750 c3        1 MOL     -0.209572
     12 C6          9.6270   -0.0860   -2.7510 c         1 MOL      0.751003
     13 O3          9.9200   -0.7000   -3.7870 o         1 MOL     -0.658640
     14 O4         10.5060    0.3370   -2.0390 o         1 MOL     -0.658640
     15 H4          9.7050   -0.3280   -0.3330 hn        1 MOL      0.300915
     16 H5          6.8210    0.3460   -0.7370 h1        1 MOL      0.079409
     17 H6          7.9810    1.2640   -2.3180 hc        1 MOL      0.051101
     18 H7          7.5030   -0.0930   -3.1790 hc        1 MOL      0.051101
     19 N2          6.6020   -2.2680    0.1030 n         1 MOL     -0.628062
     20 C7          5.9720   -3.6600    0.1660 c3        1 MOL      0.293255
     21 C8          4.5590   -3.8240   -0.3410 c         1 MOL      0.371792
     22 O5          4.2630   -4.7910   -1.0670 o         1 MOL     -0.542973
     23 C9          6.1610   -4.3900    1.5370 c3        1 MOL     -0.336658
     24 C10         7.6500   -4.2620    1.9240 c3        1 MOL      0.166400
     25 C11         7.8510   -4.7940    3.2690 c3        1 MOL      0.120746
     26 C12         9.2890   -4.6240    3.6600 c3        1 MOL      0.025032
     27 N3          9.6330   -5.0670    5.0390 n4        1 MOL     -0.307652
     28 H8          6.8380   -1.7730    0.9550 hn        1 MOL      0.359740
     29 H9          6.4150   -4.2740   -0.6130 h1        1 MOL      0.071817
     30 H10         6.0210   -5.4670    1.4170 hc        1 MOL      0.096322
     31 H11         5.5050   -4.0210    2.3250 hc        1 MOL      0.096322
     32 H12         7.9010   -3.2060    2.0590 hc        1 MOL     -0.032538
     33 H13         8.3590   -4.7520    1.2490 hc        1 MOL     -0.032538
     34 H14         7.5590   -5.8480    3.2580 hc        1 MOL     -0.020554
     35 H15         7.1560   -4.3020    3.9430 hc        1 MOL     -0.020554
     36 H16         9.5120   -3.5580    3.5640 hx        1 MOL      0.061181
     37 H17         9.8810   -5.2530    2.9980 hx        1 MOL      0.061181
     38 H18         9.5780   -6.0660    5.1460 hn        1 MOL      0.262604
     39 H19        10.5830   -4.7450    5.1570 hn        1 MOL      0.262604
     40 H20         9.0870   -4.6020    5.7550 hn        1 MOL      0.262604
     41 N4          3.7000   -2.7960   -0.2310 n         1 MOL     -0.247052
     42 C13         3.7270   -1.7110    0.7110 c3        1 MOL     -0.116939
     43 C14         3.9220   -0.3440   -0.0300 c         1 MOL      0.113446
     44 O6          4.0580   -0.2970   -1.2760 o         1 MOL     -0.353449
     45 C15         2.4250   -1.8430    1.5610 c3        1 MOL     -0.109454
     46 C16         1.1080   -1.7380    0.8010 c         1 MOL      0.641141
     47 O7          1.1260   -1.2030   -0.3220 o         1 MOL     -0.637310
     48 O8          0.1000   -2.1800    1.2800 o         1 MOL     -0.637310
     49 H21         2.9390   -2.8830   -0.8900 hn        1 MOL      0.318045
     50 H22         4.5400   -1.7780    1.4450 h1        1 MOL      0.116995
     51 H23         2.4430   -1.1090    2.3690 hc        1 MOL      0.037236
     52 H24         2.5140   -2.7900    2.0840 hc        1 MOL      0.037236
     53 N5          4.1550    0.7330    0.7290 n         1 MOL     -0.051664
     54 C17         4.2160    2.1140    0.2020 c3        1 MOL     -0.335323
     55 C18         3.0260    2.6540   -0.5570 c         1 MOL      0.750845
     56 O9          1.9550    1.9880   -0.6170 o         1 MOL     -0.697545
     57 H25         4.2210    0.6560    1.7370 hn        1 MOL      0.220517
     58 H26         5.0010    2.1730   -0.5530 h1        1 MOL      0.123650
     59 H27         4.5250    2.7530    1.0270 h1        1 MOL      0.123650
     60 N6          3.2180    3.8680   -1.1220 n         1 MOL     -0.479340
     61 C19         2.1180    4.7110   -1.7600 c3        1 MOL      0.360074
     62 C20         2.4610    6.2050   -1.5780 c         1 MOL      0.383120
     63 O10         3.6250    6.5190   -1.2830 o         1 MOL     -0.529017
     64 C21         2.0750    4.3760   -3.2520 c3        1 MOL     -0.414903
     65 C22         1.6930    2.8860   -3.5020 c         1 MOL      0.724218
     66 O11         0.6060    2.5280   -2.9950 o         1 MOL     -0.665928
     67 O12         2.4230    2.0660   -4.1060 o         1 MOL     -0.665928
     68 H28         4.0060    4.4570   -0.8690 hn        1 MOL      0.260477
     69 H29         1.1910    4.6140   -1.1910 h1        1 MOL      0.006620
     70 H30         3.0070    4.5190   -3.7860 hc        1 MOL      0.102733
     71 H31         1.2550    4.8870   -3.7630 hc        1 MOL      0.102733
     72 N7          1.5360    7.1350   -1.6890 n         1 MOL     -0.331314
     73 C23         0.0880    7.0400   -1.9280 c3        1 MOL     -0.161374
     74 C24        -0.7360    6.5090   -0.7290 c         1 MOL      0.639480
     75 O13        -0.2750    6.6820    0.3830 o         1 MOL     -0.490444
     76 H32         1.8830    8.0710   -1.5230 hn        1 MOL      0.298685
     77 H33        -0.0700    6.3960   -2.7960 h1        1 MOL      0.084713
     78 H34        -0.2160    8.0630   -2.1490 h1        1 MOL      0.084713
     79 N8         -1.8500    5.8880   -1.0550 n         1 MOL     -0.587726
     80 C25        -2.6570    4.9590   -0.1870 c3        1 MOL     -0.010699
     81 C26        -1.7400    3.8310    0.5020 c         1 MOL      0.466077
     82 O14        -1.2190    2.9980   -0.2310 o         1 MOL     -0.599494
     83 C27        -3.7500    4.3480   -1.0740 c3        1 MOL      0.352576
     84 C28        -4.8960    5.3500   -1.4760 c3        1 MOL     -0.364409
     85 O15        -4.4190    3.2830   -0.3480 oh        1 MOL     -0.662125
     86 H35        -2.0090    5.7340   -2.0370 hn        1 MOL      0.324945
     87 H36        -3.1220    5.5760    0.5730 h1        1 MOL      0.111248
     88 H37        -3.3270    3.9390   -1.9830 h1        1 MOL      0.029645
     89 H38        -5.1590    3.0160   -0.8960 ho        1 MOL      0.426715
     90 H39        -4.5540    6.0010   -2.2800 hc        1 MOL      0.104941
     91 H40        -5.7430    4.7570   -1.8260 hc        1 MOL      0.104941
     92 H41        -5.1200    5.9270   -0.5710 hc        1 MOL      0.104941
     93 N9         -1.6430    3.8250    1.8690 n         1 MOL     -0.359754
     94 C29        -1.0160    2.8130    2.7630 c3        1 MOL     -0.023816
     95 C30        -1.4750    1.3680    2.3170 c         1 MOL      0.622342
     96 O16        -0.9640    0.7200    1.4240 o         1 MOL     -0.665166
     97 C31         0.5540    3.0260    2.6900 c3        1 MOL      0.037095
     98 C32         1.0650    4.3880    3.1250 c3        1 MOL     -0.037539
     99 C33         1.2710    1.9520    3.5320 c3        1 MOL     -0.641091
    100 C34         2.3230    4.7560    2.3150 c3        1 MOL     -0.130280
    101 H42        -2.2300    4.5170    2.3100 hn        1 MOL      0.253688
    102 H43        -1.4040    2.9700    3.7630 h1        1 MOL      0.087182
    103 H44         0.8160    2.9250    1.6400 hc        1 MOL      0.234779
    104 H45         1.4160    4.2510    4.1530 hc        1 MOL      0.017201
    105 H46         0.2510    5.1130    3.0390 hc        1 MOL      0.017201
    106 H47         0.8860    1.8620    4.5420 hc        1 MOL      0.178038
    107 H48         1.2000    0.9960    3.0080 hc        1 MOL      0.178038
    108 H49         2.3240    2.2460    3.5470 hc        1 MOL      0.178038
    109 H50         2.0240    5.0020    1.3000 hc        1 MOL      0.035533
    110 H51         2.7030    5.7000    2.7260 hc        1 MOL      0.035533
    111 H52         3.0710    3.9570    2.3540 hc        1 MOL      0.035533
    112 N10        -2.4310    0.8350    3.0750 n         1 MOL     -0.495397
    113 C35        -2.8440   -0.6160    3.0410 c3        1 MOL      0.160880
    114 C36        -4.3510   -0.8220    3.0830 c         1 MOL      0.376782
    115 O17        -4.8400   -1.9230    3.2360 o         1 MOL     -0.502661
    116 C37        -2.1450   -1.5320    4.1010 c3        1 MOL      0.401066
    117 C38        -2.6450   -1.2970    5.5800 c3        1 MOL     -0.355234
    118 O18        -0.6660   -1.3770    3.9460 oh        1 MOL     -0.602540
    119 H53        -2.7110    1.4280    3.8480 hn        1 MOL      0.234581
    120 H54        -2.5610   -1.0850    2.0960 h1        1 MOL      0.118288
    121 H55        -2.4150   -2.5460    3.8100 h1        1 MOL     -0.005851
    122 H56        -0.4220   -1.4830    3.0240 ho        1 MOL      0.326816
    123 H57        -2.0740   -1.9180    6.2650 hc        1 MOL      0.090582
    124 H58        -2.4600   -0.3070    6.0090 hc        1 MOL      0.090582
    125 H59        -3.7160   -1.4910    5.5970 hc        1 MOL      0.090582
    126 N11        -5.1530    0.2240    2.7090 n         1 MOL     -0.356999
    127 C39        -6.5800    0.1130    2.6070 c3        1 MOL      0.113281
    128 C40        -6.8650   -0.4920    1.2270 c         1 MOL      0.429075
    129 O19        -7.1510    0.2650    0.2540 o         1 MOL     -0.539799
    130 C41        -7.3550    1.3060    3.0380 c3        1 MOL      0.459358
    131 C42        -8.8590    1.0360    3.3630 c3        1 MOL     -0.148488
    132 O20        -6.8350    1.8620    4.2120 oh        1 MOL     -0.646216
    133 H60        -4.6870    1.0990    2.5240 hn        1 MOL      0.220201
    134 H61        -6.9250   -0.6540    3.2940 h1        1 MOL      0.057054
    135 H62        -7.3620    2.0570    2.2440 h1        1 MOL     -0.066635
    136 H63        -6.1160    2.4480    3.9600 ho        1 MOL      0.379248
    137 H64        -9.4670    1.1400    2.4690 hc        1 MOL      0.036163
    138 H65        -8.9670   -0.0030    3.6540 hc        1 MOL      0.036163
    139 H66        -9.2780    1.7470    4.0740 hc        1 MOL      0.036163
    140 N12        -6.6690   -1.8280    1.0640 n         1 MOL     -0.730839
    141 C43        -6.5640   -2.6130   -0.1390 c3        1 MOL      0.613861
    142 C44        -5.3430   -2.2390   -0.9520 c         1 MOL      0.549674
    143 O21        -4.9260   -1.0690   -0.8320 o         1 MOL     -0.510891
    144 C45        -7.8970   -2.5320   -0.8380 c3        1 MOL     -0.787141
    145 C46        -9.2090   -2.7330   -0.0530 c3        1 MOL      0.401766
    146 C47       -10.3590   -2.7850   -1.0820 c3        1 MOL     -0.223812
    147 C48       -11.6360   -2.9880   -0.3430 c3        1 MOL      0.187872
    148 N13       -12.5520   -1.9970   -0.8190 n4        1 MOL     -0.241812
    149 H67        -6.3770   -2.2070    1.9490 hn        1 MOL      0.324375
    150 H68        -6.4060   -3.6540    0.1300 h1        1 MOL     -0.032222
    151 H69        -7.6760   -3.2700   -1.6260 hc        1 MOL      0.180863
    152 H70        -7.9440   -1.5730   -1.3450 hc        1 MOL      0.180863
    153 H71        -9.4230   -1.9290    0.6430 hc        1 MOL     -0.031352
    154 H72        -9.2260   -3.6030    0.6120 hc        1 MOL     -0.031352
    155 H73       -10.2380   -3.6960   -1.6670 hc        1 MOL      0.085656
    156 H74       -10.2960   -1.8440   -1.6220 hc        1 MOL      0.085656
    157 H75       -11.4940   -2.9250    0.7360 hx        1 MOL      0.018226
    158 H76       -12.0810   -3.9490   -0.5890 hx        1 MOL      0.018226
    159 H77       -12.1340   -1.0900   -0.6370 hn        1 MOL      0.231211
    160 H78       -12.6640   -2.0950   -1.8150 hn        1 MOL      0.231211
    161 H79       -13.4730   -2.1810   -0.4470 hn        1 MOL      0.231211
    162 N14        -4.7300   -3.1790   -1.6700 n         1 MOL     -0.628193
    163 C49        -3.4600   -3.0180   -2.4270 c3        1 MOL      0.335252
    164 C50        -2.2250   -2.5920   -1.5680 c         1 MOL      0.340977
    165 O22        -1.6470   -1.5970   -1.8190 o         1 MOL     -0.592882
    166 C51        -3.0090   -4.1820   -3.2430 c3        1 MOL     -0.000912
    167 C52        -4.0540   -4.7120   -4.2290 c3        1 MOL     -0.245609
    168 C53        -3.4410   -5.9530   -4.8500 c         1 MOL      0.733848
    169 O23        -3.8730   -7.0690   -4.5650 o         1 MOL     -0.640498
    170 O24        -2.5200   -5.8180   -5.6580 o         1 MOL     -0.640498
    171 H80        -5.0850   -4.1230   -1.6480 hn        1 MOL      0.322846
    172 H81        -3.6260   -2.1270   -3.0320 h1        1 MOL     -0.005815
    173 H82        -2.5910   -4.9520   -2.5980 hc        1 MOL      0.061836
    174 H83        -2.1740   -3.7900   -3.8210 hc        1 MOL      0.061836
    175 H84        -4.3090   -3.9360   -4.9480 hc        1 MOL      0.016580
    176 H85        -4.9310   -5.0750   -3.6850 hc        1 MOL      0.016580
    177 N15        -1.8670   -3.2160   -0.4380 n         1 MOL     -0.238969
    178 C54        -2.4170   -4.4380    0.1310 c3        1 MOL     -0.074496
    179 H86        -2.6610   -5.1340   -0.6720 h1        1 MOL      0.039292
    180 H87        -1.6830   -4.8930    0.7960 h1        1 MOL      0.039292
    181 H88        -3.3210   -4.2020    0.6930 h1        1 MOL      0.039292
    182 H89        -1.0600   -2.7880   -0.0060 hn        1 MOL      0.287557
    183 Ca1        -0.3750    0.6470   -1.4400 Ca        1 MOL      1.856445
    184 O25         1.1150   -0.3600   -3.4270 oh        1 MOL     -0.897867
    185 O26        -3.0410    0.8510   -0.8770 oh        1 MOL     -0.897867
    186 H90         1.5040    0.4960   -3.6150 ho        1 MOL      0.429821
    187 H91        -3.3880    1.6760   -0.5140 ho        1 MOL      0.429821
    188 H92         1.8620   -0.9700   -3.4060 ho        1 MOL      0.429821
    189 H93        -3.6830    0.1980   -0.6270 ho        1 MOL      0.429821
    190 O27        -1.9710    1.0340   -3.6270 oh        1 MOL     -0.897867
    191 H94        -2.8700    0.7480   -3.4290 ho        1 MOL      0.429821
    192 H95        -1.9230    1.0050   -4.5840 ho        1 MOL      0.429821
@<TRIPOS>BOND
     1    1    2 1   
     2    1    4 1   
     3    1    5 1   
     4    1    6 1   
     5    2    3 2   
     6    2    7 1   
     7    7    8 1   
     8    7   15 1   
     9    8    9 1   
    10    8   11 1   
    11    8   16 1   
    12    9   10 2   
    13    9   19 1   
    14   11   12 1   
    15   11   17 1   
    16   11   18 1   
    17   12   13 1   
    18   12   14 1   
    19   19   20 1   
    20   19   28 1   
    21   20   21 1   
    22   20   23 1   
    23   20   29 1   
    24   21   22 2   
    25   21   41 1   
    26   23   24 1   
    27   23   30 1   
    28   23   31 1   
    29   24   25 1   
    30   24   32 1   
    31   24   33 1   
    32   25   26 1   
    33   25   34 1   
    34   25   35 1   
    35   26   27 1   
    36   26   36 1   
    37   26   37 1   
    38   27   38 1   
    39   27   39 1   
    40   27   40 1   
    41   41   42 1   
    42   41   49 1   
    43   42   43 1   
    44   42   45 1   
    45   42   50 1   
    46   43   44 2   
    47   43   53 1   
    48   45   46 1   
    49   45   51 1   
    50   45   52 1   
    51   46   47 1   
    52   46   48 1   
    53   53   54 1   
    54   53   57 1   
    55   54   55 1   
    56   54   58 1   
    57   54   59 1   
    58   55   56 2   
    59   55   60 1   
    60   60   61 1   
    61   60   68 1   
    62   61   62 1   
    63   61   64 1   
    64   61   69 1   
    65   62   63 2   
    66   62   72 1   
    67   64   65 1   
    68   64   70 1   
    69   64   71 1   
    70   65   66 1   
    71   65   67 1   
    72   72   73 1   
    73   72   76 1   
    74   73   74 1   
    75   73   77 1   
    76   73   78 1   
    77   74   75 2   
    78   74   79 1   
    79   79   80 1   
    80   79   86 1   
    81   80   81 1   
    82   80   83 1   
    83   80   87 1   
    84   81   82 2   
    85   81   93 1   
    86   83   84 1   
    87   83   85 1   
    88   83   88 1   
    89   84   90 1   
    90   84   91 1   
    91   84   92 1   
    92   85   89 1   
    93   93   94 1   
    94   93  101 1   
    95   94   95 1   
    96   94   97 1   
    97   94  102 1   
    98   95   96 2   
    99   95  112 1   
   100   97   98 1   
   101   97   99 1   
   102   97  103 1   
   103   98  100 1   
   104   98  104 1   
   105   98  105 1   
   106   99  106 1   
   107   99  107 1   
   108   99  108 1   
   109  100  109 1   
   110  100  110 1   
   111  100  111 1   
   112  112  113 1   
   113  112  119 1   
   114  113  114 1   
   115  113  116 1   
   116  113  120 1   
   117  114  115 2   
   118  114  126 1   
   119  116  117 1   
   120  116  118 1   
   121  116  121 1   
   122  117  123 1   
   123  117  124 1   
   124  117  125 1   
   125  118  122 1   
   126  126  127 1   
   127  126  133 1   
   128  127  128 1   
   129  127  130 1   
   130  127  134 1   
   131  128  129 2   
   132  128  140 1   
   133  130  131 1   
   134  130  132 1   
   135  130  135 1   
   136  131  137 1   
   137  131  138 1   
   138  131  139 1   
   139  132  136 1   
   140  140  141 1   
   141  140  149 1   
   142  141  142 1   
   143  141  144 1   
   144  141  150 1   
   145  142  143 2   
   146  142  162 1   
   147  144  145 1   
   148  144  151 1   
   149  144  152 1   
   150  145  146 1   
   151  145  153 1   
   152  145  154 1   
   153  146  147 1   
   154  146  155 1   
   155  146  156 1   
   156  147  148 1   
   157  147  157 1   
   158  147  158 1   
   159  148  159 1   
   160  148  160 1   
   161  148  161 1   
   162  162  163 1   
   163  162  171 1   
   164  163  164 1   
   165  163  166 1   
   166  163  172 1   
   167  164  165 2   
   168  164  177 1   
   169  166  167 1   
   170  166  173 1   
   171  166  174 1   
   172  167  168 1   
   173  167  175 1   
   174  167  176 1   
   175  168  169 1   
   176  168  170 1   
   177  177  178 1   
   178  177  182 1   
   179  178  179 1   
   180  178  180 1   
   181  178  181 1   
   182  184  186 1   
   183  184  188 1   
   184  185  187 1   
   185  185  189 1   
   186  190  191 1   
   187  190  192 1   
@<TRIPOS>SUBSTRUCTURE
     1 MOL         1 TEMP              0 ****  ****    0 ROOT
