@<TRIPOS>MOLECULE
MOL
  178   175     1     0     0
SMALL
resp


@<TRIPOS>ATOM
      1 C1         -4.6380   -2.3230   -3.0700 c3        1 MOL     -0.340043
      2 C2         -5.8420   -1.3990   -2.9350 c         1 MOL      0.732491
      3 O1         -5.7470   -0.3340   -2.2640 o         1 MOL     -0.611016
      4 H1         -3.9960   -1.9670   -3.8760 hc        1 MOL      0.090546
      5 H2         -4.0770   -2.3290   -2.1360 hc        1 MOL      0.090546
      6 H3         -4.9780   -3.3330   -3.2980 hc        1 MOL      0.090546
      7 N1         -6.9550   -1.8420   -3.4930 n         1 MOL     -0.761139
      8 C3         -8.3500   -1.2680   -3.2370 c3        1 MOL      0.494523
      9 C4         -8.7530   -1.6580   -1.7790 c         1 MOL      0.555269
     10 O2         -8.7420   -2.8100   -1.4130 o         1 MOL     -0.574730
     11 C5         -9.2540   -1.9460   -4.1960 c3        1 MOL     -0.329088
     12 C6        -10.6330   -1.3250   -4.2590 c         1 MOL      0.707945
     13 O3        -11.4700   -1.7340   -5.1590 o         1 MOL     -0.732871
     14 O4        -11.0080   -0.5130   -3.3940 o         1 MOL     -0.732871
     15 H4         -6.8130   -2.6730   -4.0440 hn        1 MOL      0.353655
     16 H5         -8.3690   -0.1850   -3.3140 h1        1 MOL     -0.047272
     17 H6         -9.1710   -3.0230   -4.1100 hc        1 MOL      0.041736
     18 H7         -8.8940   -1.7130   -5.2000 hc        1 MOL      0.041736
     19 N2         -9.0200   -0.6040   -1.0110 n         1 MOL     -0.355858
     20 C7         -9.1130   -0.5830    0.4800 c3        1 MOL      0.051073
     21 C8         -7.7630   -0.8420    1.2230 c         1 MOL      0.584570
     22 O5         -7.7520   -1.1310    2.4050 o         1 MOL     -0.577960
     23 C9         -9.7780    0.7990    0.8260 c3        1 MOL     -0.164143
     24 H8         -9.0140    0.2950   -1.4720 hn        1 MOL      0.238266
     25 H9         -9.7810   -1.3520    0.8620 h1        1 MOL      0.074699
     26 H10       -10.5120    1.1480    0.1110 hc        1 MOL      0.049494
     27 H11       -10.1500    0.8670    1.8530 hc        1 MOL      0.049494
     28 H12        -9.0030    1.5700    0.8450 hc        1 MOL      0.049494
     29 N3         -6.5740   -0.7230    0.5710 n         1 MOL     -0.560675
     30 C10        -5.1650   -1.0380    1.0700 c3        1 MOL      0.404133
     31 C11        -4.5910   -0.2680    2.2200 c         1 MOL      0.291055
     32 O6         -3.5190   -0.5510    2.7080 o         1 MOL     -0.357239
     33 C12        -5.0460   -2.6040    1.2090 c3        1 MOL     -0.261716
     34 C13        -3.6010   -3.0910    1.4000 c         1 MOL      0.740083
     35 O7         -3.3130   -4.0560    2.1500 o         1 MOL     -0.769487
     36 O8         -2.6130   -2.6120    0.8290 o         1 MOL     -0.769487
     37 H13        -6.5500   -0.4330   -0.3900 hn        1 MOL      0.197231
     38 H14        -4.5220   -0.8790    0.2050 h1        1 MOL      0.018250
     39 H15        -5.4180   -3.1690    0.3560 hc        1 MOL      0.073069
     40 H16        -5.6010   -2.8160    2.1200 hc        1 MOL      0.073069
     41 N4         -5.3540    0.7000    2.8200 n         1 MOL     -0.254985
     42 C14        -5.1620    1.2290    4.1920 c3        1 MOL     -0.028845
     43 C15        -4.1050    2.2880    4.3890 c         1 MOL      0.418018
     44 O9         -3.9940    2.8060    5.5470 o         1 MOL     -0.509648
     45 H17        -6.1690    0.9970    2.2980 hn        1 MOL      0.210305
     46 H18        -4.8670    0.3370    4.7470 h1        1 MOL      0.076393
     47 H19        -6.0810    1.5900    4.6660 h1        1 MOL      0.076393
     48 N5         -3.3430    2.7400    3.3810 n         1 MOL     -0.466831
     49 C16        -2.3230    3.7210    3.6070 c3        1 MOL      0.369462
     50 C17        -2.0390    4.5710    2.3520 c         1 MOL      0.371249
     51 O10        -2.1250    4.0750    1.2450 o         1 MOL     -0.436344
     52 C18        -0.9530    3.0500    4.0850 c3        1 MOL     -0.234525
     53 C19        -1.1020    2.4490    5.4610 c         1 MOL      0.565927
     54 N6         -1.2100    1.1470    5.5870 n         1 MOL     -0.717681
     55 O11        -1.0760    3.1160    6.4480 o         1 MOL     -0.550666
     56 H20        -3.3940    2.2030    2.5240 hn        1 MOL      0.224136
     57 H21        -2.6430    4.4240    4.3710 h1        1 MOL     -0.024127
     58 H22        -0.2050    3.8380    4.1060 hc        1 MOL      0.081250
     59 H23        -0.5720    2.3660    3.3300 hc        1 MOL      0.081250
     60 H24        -1.0030    0.5700    4.7800 hn        1 MOL      0.353558
     61 H25        -1.1480    0.8160    6.5430 hn        1 MOL      0.353558
     62 N7         -1.5540    5.7900    2.5730 n         1 MOL     -0.372520
     63 C20        -1.1430    6.7320    1.5270 c3        1 MOL     -0.198462
     64 C21         0.1000    6.3970    0.7780 c         1 MOL      0.607899
     65 O12         1.0000    5.6540    1.2850 o         1 MOL     -0.494097
     66 H26        -1.5010    6.1000    3.5290 hn        1 MOL      0.293727
     67 H27        -1.0240    7.7130    1.9640 h1        1 MOL      0.104783
     68 H28        -1.9120    6.7550    0.7630 h1        1 MOL      0.104783
     69 N8          0.1900    6.9120   -0.4720 n         1 MOL     -0.345631
     70 C22         1.4310    7.0690   -1.1690 c3        1 MOL     -0.412285
     71 C23         1.9770    5.7560   -1.8760 c         1 MOL      0.558474
     72 O13         3.1410    5.6940   -2.2770 o         1 MOL     -0.577512
     73 C24         1.4420    8.2500   -2.1670 c3        1 MOL      0.627192
     74 C25         0.6270    8.0700   -3.4120 c3        1 MOL     -0.494023
     75 O14         0.9490    9.4640   -1.6560 oh        1 MOL     -0.679620
     76 H29        -0.5790    7.5020   -0.7630 hn        1 MOL      0.234938
     77 H30         2.2460    7.3400   -0.5090 h1        1 MOL      0.167994
     78 H31         2.5000    8.4120   -2.3660 h1        1 MOL      0.017652
     79 H32         0.0020    9.4810   -1.5020 ho        1 MOL      0.394367
     80 H33         0.7550    8.8890   -4.1300 hc        1 MOL      0.115110
     81 H34         0.9720    7.1930   -3.9520 hc        1 MOL      0.115110
     82 H35        -0.4050    7.8130   -3.1860 hc        1 MOL      0.115110
     83 N9          1.1910    4.7060   -1.9570 n         1 MOL     -0.242369
     84 C26         1.5030    3.3360   -2.3920 c3        1 MOL     -0.009391
     85 C27         1.2130    2.3710   -1.2570 c         1 MOL      0.592261
     86 O15         0.1310    2.3730   -0.6430 o         1 MOL     -0.484653
     87 C28         0.7480    3.0860   -3.7040 c3        1 MOL      0.075800
     88 C29         1.2250    4.0240   -4.8130 c3        1 MOL     -0.148120
     89 C30         0.7930    1.5800   -4.1840 c3        1 MOL     -0.124030
     90 C31         2.6790    3.8500   -5.1470 c3        1 MOL      0.031133
     91 H36         0.2330    4.8060   -1.6580 hn        1 MOL      0.192333
     92 H37         2.5560    3.2420   -2.6620 h1        1 MOL      0.091195
     93 H38        -0.3190    3.2960   -3.5420 hc        1 MOL      0.022408
     94 H39         1.1070    5.0780   -4.5850 hc        1 MOL      0.037254
     95 H40         0.6140    3.8790   -5.7000 hc        1 MOL      0.037254
     96 H41         0.2830    0.9590   -3.4460 hc        1 MOL      0.043082
     97 H42         0.2780    1.5230   -5.1440 hc        1 MOL      0.043082
     98 H43         1.7990    1.1820   -4.2440 hc        1 MOL      0.043082
     99 H44         3.0270    4.2930   -6.0870 hc        1 MOL     -0.012856
    100 H45         3.2980    4.2610   -4.3460 hc        1 MOL     -0.012856
    101 H46         2.8860    2.7790   -5.1680 hc        1 MOL     -0.012856
    102 N10         2.1900    1.4900   -0.9910 n         1 MOL     -0.778029
    103 C32         2.0970    0.2640   -0.1560 c3        1 MOL      0.639204
    104 C33         3.4690   -0.1390    0.5170 c         1 MOL      0.239097
    105 O16         3.6020   -1.2310    1.0270 o         1 MOL     -0.378675
    106 C34         1.4800   -0.8970   -0.9310 c3        1 MOL     -0.123918
    107 C35         0.7460   -1.9280   -0.0940 c         1 MOL      0.758869
    108 O17         0.4130   -1.7870    1.0940 o         1 MOL     -0.775504
    109 O18         0.6290   -3.1250   -0.5340 o         1 MOL     -0.775504
    110 H47         3.0630    1.6390   -1.4790 hn        1 MOL      0.321108
    111 H48         1.4300    0.4600    0.6870 h1        1 MOL     -0.029592
    112 H49         2.3160   -1.3490   -1.4650 hc        1 MOL     -0.012268
    113 H50         0.7590   -0.3990   -1.5970 hc        1 MOL     -0.012268
    114 N11         4.4540    0.7040    0.3730 n         1 MOL     -0.374925
    115 C36         5.8250    0.3870    0.6600 c3        1 MOL      0.113319
    116 C37         6.2710   -0.8190   -0.1390 c         1 MOL      0.538864
    117 O19         6.0100   -0.9000   -1.3340 o         1 MOL     -0.644142
    118 C38         6.6500    1.6550    0.2340 c3        1 MOL     -0.281162
    119 C39         8.1310    1.5550    0.5280 ca        1 MOL      0.079028
    120 C40         8.5460    1.5570    1.8640 ca        1 MOL     -0.175736
    121 C41         9.0280    1.1740   -0.5090 ca        1 MOL     -0.175736
    122 C42         9.8790    1.2610    2.1610 ca        1 MOL     -0.093781
    123 C43        10.3900    1.0200   -0.2320 ca        1 MOL     -0.093781
    124 C44        10.8260    1.0700    1.1010 ca        1 MOL     -0.133278
    125 H51         4.3000    1.5930   -0.0750 hn        1 MOL      0.216215
    126 H52         5.7910    0.1860    1.7350 h1        1 MOL      0.044367
    127 H53         6.3180    2.5490    0.7680 hc        1 MOL      0.125368
    128 H54         6.5460    1.7990   -0.8440 hc        1 MOL      0.125368
    129 H55         7.8740    1.7870    2.6750 ha        1 MOL      0.126568
    130 H56         8.7220    0.9620   -1.5220 ha        1 MOL      0.126568
    131 H57        10.1490    1.2010    3.2080 ha        1 MOL      0.109964
    132 H58        11.0800    0.7650   -1.0380 ha        1 MOL      0.109964
    133 H59        11.8570    0.9450    1.4220 ha        1 MOL      0.100006
    134 N12         7.1050   -1.6830    0.3970 n         1 MOL      0.193414
    135 C45         7.9460   -2.5710   -0.4070 c3        1 MOL      0.098599
    136 C46         7.1820   -3.6190   -1.2250 c         1 MOL      0.293178
    137 O20         7.7360   -4.3410   -2.0210 o         1 MOL     -0.514973
    138 C47         8.8790   -3.1650    0.5860 c3        1 MOL     -0.126476
    139 C48         8.0420   -3.2090    1.8630 c3        1 MOL     -0.058780
    140 C49         7.3090   -1.8950    1.7780 c3        1 MOL     -0.148688
    141 H60         8.4460   -1.9310   -1.1480 h1        1 MOL      0.018215
    142 H61         9.2080   -4.1510    0.2690 hc        1 MOL      0.042486
    143 H62         9.6600   -2.4070    0.5960 hc        1 MOL      0.042486
    144 H63         7.3070   -3.9810    1.6260 hc        1 MOL      0.055318
    145 H64         8.5740   -3.3730    2.8020 hc        1 MOL      0.055318
    146 H65         6.3230   -1.8730    2.2440 h1        1 MOL      0.030018
    147 H66         7.9310   -1.0620    2.1170 h1        1 MOL      0.030018
    148 N13         5.8840   -3.7390   -0.9220 n         1 MOL     -0.106179
    149 C50         4.8730   -4.5920   -1.5940 c3        1 MOL     -0.159353
    150 C51         4.6970   -4.2980   -3.0470 c         1 MOL      0.552465
    151 O21         4.5990   -5.2450   -3.8120 o         1 MOL     -0.545117
    152 C52         3.5080   -4.3840   -0.8960 c3        1 MOL      0.109033
    153 C53         3.4860   -5.0780    0.4240 c3        1 MOL     -0.100806
    154 C54         2.0530   -5.2590    0.9560 c         1 MOL      0.691089
    155 O22         1.1160   -5.8370    0.2930 o         1 MOL     -0.755541
    156 O23         1.7570   -4.8390    2.0780 o         1 MOL     -0.755541
    157 H67         5.5230   -3.0900   -0.2250 hn        1 MOL      0.066398
    158 H68         5.3210   -5.5800   -1.4750 h1        1 MOL      0.112762
    159 H69         2.6820   -4.7150   -1.5290 hc        1 MOL      0.018498
    160 H70         3.3380   -3.3580   -0.5590 hc        1 MOL      0.018498
    161 H71         4.0280   -4.6800    1.2840 hc        1 MOL     -0.005522
    162 H72         3.8990   -6.0710    0.2280 hc        1 MOL     -0.005522
    163 N14         4.6430   -2.9720   -3.3700 n         1 MOL     -0.327042
    164 C55         4.2870   -2.4710   -4.7080 c3        1 MOL     -0.169226
    165 H73         4.6730   -3.1530   -5.4660 h1        1 MOL      0.083289
    166 H74         3.2020   -2.4080   -4.7960 h1        1 MOL      0.083289
    167 H75         4.7230   -1.4830   -4.8540 h1        1 MOL      0.083289
    168 H76         4.8880   -2.3990   -2.5780 hn        1 MOL      0.293117
    169 Ca1        -0.7250   -4.2910    1.4370 Ca        1 MOL      1.801522
    170 O24        -1.2920   -6.2370    3.2500 oh        1 MOL     -0.827896
    171 H77        -2.1100   -6.3470    3.7250 ho        1 MOL      0.404101
    172 H78        -0.6970   -6.8730    3.6430 ho        1 MOL      0.404101
    173 O25        -0.3240   -3.7150    3.9760 oh        1 MOL     -0.827896
    174 H79        -0.5850   -3.0280    4.5910 ho        1 MOL      0.404101
    175 H80         0.1590   -4.3470    4.5020 ho        1 MOL      0.404101
    176 O26        -2.1830   -6.0260   -0.1280 oh        1 MOL     -0.827896
    177 H81        -1.9010   -6.8730   -0.5090 ho        1 MOL      0.404101
    178 H82        -2.9930   -5.8190   -0.5770 ho        1 MOL      0.404101
@<TRIPOS>BOND
     1    1    2 1   
     2    1    4 1   
     3    1    5 1   
     4    1    6 1   
     5    2    3 2   
     6    2    7 1   
     7    7    8 1   
     8    7   15 1   
     9    8    9 1   
    10    8   11 1   
    11    8   16 1   
    12    9   10 2   
    13    9   19 1   
    14   11   12 1   
    15   11   17 1   
    16   11   18 1   
    17   12   13 1   
    18   12   14 1   
    19   19   20 1   
    20   19   24 1   
    21   20   21 1   
    22   20   23 1   
    23   20   25 1   
    24   21   22 2   
    25   21   29 1   
    26   23   26 1   
    27   23   27 1   
    28   23   28 1   
    29   29   30 1   
    30   29   37 1   
    31   30   31 1   
    32   30   33 1   
    33   30   38 1   
    34   31   32 2   
    35   31   41 1   
    36   33   34 1   
    37   33   39 1   
    38   33   40 1   
    39   34   35 1   
    40   34   36 1   
    41   41   42 1   
    42   41   45 1   
    43   42   43 1   
    44   42   46 1   
    45   42   47 1   
    46   43   44 2   
    47   43   48 1   
    48   48   49 1   
    49   48   56 1   
    50   49   50 1   
    51   49   52 1   
    52   49   57 1   
    53   50   51 2   
    54   50   62 1   
    55   52   53 1   
    56   52   58 1   
    57   52   59 1   
    58   53   54 1   
    59   53   55 2   
    60   54   60 1   
    61   54   61 1   
    62   62   63 1   
    63   62   66 1   
    64   63   64 1   
    65   63   67 1   
    66   63   68 1   
    67   64   65 2   
    68   64   69 1   
    69   69   70 1   
    70   69   76 1   
    71   70   71 1   
    72   70   73 1   
    73   70   77 1   
    74   71   72 2   
    75   71   83 1   
    76   73   74 1   
    77   73   75 1   
    78   73   78 1   
    79   74   80 1   
    80   74   81 1   
    81   74   82 1   
    82   75   79 1   
    83   83   84 1   
    84   83   91 1   
    85   84   85 1   
    86   84   87 1   
    87   84   92 1   
    88   85   86 2   
    89   85  102 1   
    90   87   88 1   
    91   87   89 1   
    92   87   93 1   
    93   88   90 1   
    94   88   94 1   
    95   88   95 1   
    96   89   96 1   
    97   89   97 1   
    98   89   98 1   
    99   90   99 1   
   100   90  100 1   
   101   90  101 1   
   102  102  103 1   
   103  102  110 1   
   104  103  104 1   
   105  103  106 1   
   106  103  111 1   
   107  104  105 2   
   108  104  114 1   
   109  106  107 1   
   110  106  112 1   
   111  106  113 1   
   112  107  108 1   
   113  107  109 1   
   114  114  115 1   
   115  114  125 1   
   116  115  116 1   
   117  115  118 1   
   118  115  126 1   
   119  116  117 2   
   120  116  134 1   
   121  118  119 1   
   122  118  127 1   
   123  118  128 1   
   124  119  120 ar  
   125  119  121 ar  
   126  120  122 ar  
   127  120  129 1   
   128  121  123 ar  
   129  121  130 1   
   130  122  124 ar  
   131  122  131 1   
   132  123  124 ar  
   133  123  132 1   
   134  124  133 1   
   135  134  135 1   
   136  134  140 1   
   137  135  136 1   
   138  135  138 1   
   139  135  141 1   
   140  136  137 2   
   141  136  148 1   
   142  138  139 1   
   143  138  142 1   
   144  138  143 1   
   145  139  140 1   
   146  139  144 1   
   147  139  145 1   
   148  140  146 1   
   149  140  147 1   
   150  148  149 1   
   151  148  157 1   
   152  149  150 1   
   153  149  152 1   
   154  149  158 1   
   155  150  151 2   
   156  150  163 1   
   157  152  153 1   
   158  152  159 1   
   159  152  160 1   
   160  153  154 1   
   161  153  161 1   
   162  153  162 1   
   163  154  155 1   
   164  154  156 1   
   165  163  164 1   
   166  163  168 1   
   167  164  165 1   
   168  164  166 1   
   169  164  167 1   
   170  170  171 1   
   171  170  172 1   
   172  173  174 1   
   173  173  175 1   
   174  176  177 1   
   175  176  178 1   
@<TRIPOS>SUBSTRUCTURE
     1 MOL         1 TEMP              0 ****  ****    0 ROOT
