@<TRIPOS>MOLECULE
MOL
  188   182     1     0     0
SMALL
resp


@<TRIPOS>ATOM
      1 C1         -6.4980   -1.2680    3.5470 c3        1 MOL     -0.351237
      2 C2         -6.8520   -1.7670    2.1000 c         1 MOL      0.572855
      3 O1         -6.0520   -1.5250    1.2300 o         1 MOL     -0.463822
      4 H1         -7.2360   -0.5320    3.8680 hc        1 MOL      0.083577
      5 H2         -6.5050   -2.1130    4.2360 hc        1 MOL      0.083577
      6 H3         -5.5090   -0.8110    3.5430 hc        1 MOL      0.083577
      7 N1         -7.9950   -2.3550    1.9060 n         1 MOL     -0.483132
      8 C3         -8.6430   -2.4980    0.5070 c3        1 MOL      0.094436
      9 C4         -8.6330   -1.2300   -0.3880 c         1 MOL      0.499772
     10 O2         -8.3080   -1.3560   -1.5550 o         1 MOL     -0.450250
     11 C5         -8.1040   -3.7470   -0.2240 c3        1 MOL     -0.338583
     12 C6         -8.9500   -4.1520   -1.4910 c         1 MOL      0.726322
     13 O3         -8.4800   -4.7890   -2.4590 o         1 MOL     -0.644308
     14 O4        -10.1610   -3.8340   -1.4310 o         1 MOL     -0.644308
     15 H4         -8.4810   -2.6850    2.7280 hn        1 MOL      0.306889
     16 H5         -9.7070   -2.5550    0.7380 h1        1 MOL      0.051891
     17 H6         -8.1370   -4.6820    0.3310 hc        1 MOL      0.095969
     18 H7         -7.0510   -3.7400   -0.5050 hc        1 MOL      0.095969
     19 N2         -8.9190   -0.0600    0.1110 n         1 MOL     -0.393373
     20 C7         -8.8150    1.1950   -0.6900 c3        1 MOL     -0.037696
     21 C8         -7.3680    1.8110   -0.7980 c         1 MOL      0.526735
     22 O5         -7.2400    2.8550   -1.3970 o         1 MOL     -0.578681
     23 C9         -9.8570    2.1800   -0.1080 c3        1 MOL     -0.120392
     24 C10        -9.4280    2.6840    1.2940 c3        1 MOL      0.146818
     25 C11       -10.2810    3.8970    1.6750 c3        1 MOL     -0.132834
     26 C12        -9.7950    5.0640    0.8430 c3        1 MOL      0.062652
     27 N3        -10.2510    6.3640    1.3420 n4        1 MOL     -0.169526
     28 H8         -9.3400    0.0310    1.0260 hn        1 MOL      0.231969
     29 H9         -9.1740    0.9290   -1.6840 h1        1 MOL      0.151203
     30 H10       -10.8580    1.7640    0.0200 hc        1 MOL      0.063095
     31 H11        -9.9830    3.0390   -0.7610 hc        1 MOL      0.063095
     32 H12        -8.3850    2.9580    1.4500 hc        1 MOL     -0.011033
     33 H13        -9.5610    1.8670    2.0080 hc        1 MOL     -0.011033
     34 H14       -10.1760    4.0530    2.7410 hc        1 MOL      0.045299
     35 H15       -11.3250    3.6470    1.5010 hc        1 MOL      0.045299
     36 H16       -10.0120    4.9060   -0.2120 hx        1 MOL      0.071026
     37 H17        -8.7100    5.1730    0.9200 hx        1 MOL      0.071026
     38 H18        -9.7980    7.1790    0.9650 hn        1 MOL      0.205224
     39 H19       -11.2390    6.4440    1.1470 hn        1 MOL      0.205224
     40 H20       -10.1920    6.3830    2.3530 hn        1 MOL      0.205224
     41 N4         -6.3140    1.1250   -0.2800 n         1 MOL     -0.272893
     42 C13        -4.9370    1.5090   -0.4580 c3        1 MOL     -0.046031
     43 C14        -4.4830    1.5180   -1.9880 c         1 MOL      0.663302
     44 O6         -4.7530    0.5670   -2.7230 o         1 MOL     -0.500347
     45 C15        -3.9930    0.5800    0.4000 c3        1 MOL     -0.150353
     46 C16        -2.5650    1.1700    0.2160 c         1 MOL      0.697209
     47 O7         -1.6810    0.5420   -0.3960 o         1 MOL     -0.733468
     48 O8         -2.2630    2.1780    0.8790 o         1 MOL     -0.733468
     49 H21        -6.5400    0.2460    0.1560 hn        1 MOL      0.147640
     50 H22        -4.7080    2.5030   -0.0590 h1        1 MOL      0.003084
     51 H23        -4.0600   -0.4630    0.0790 hc        1 MOL      0.079274
     52 H24        -4.3130    0.6000    1.4410 hc        1 MOL      0.079274
     53 N5         -3.7560    2.5110   -2.4140 n         1 MOL     -0.449389
     54 C17        -3.2290    2.7380   -3.7910 c3        1 MOL     -0.013042
     55 C18        -2.2960    1.6440   -4.4290 c         1 MOL      0.448886
     56 O9         -2.1920    1.5610   -5.6430 o         1 MOL     -0.516699
     57 H25        -3.6200    3.3010   -1.8000 hn        1 MOL      0.291685
     58 H26        -2.6370    3.6490   -3.8010 h1        1 MOL      0.062864
     59 H27        -3.9770    2.8500   -4.5790 h1        1 MOL      0.062864
     60 N6         -1.6180    0.8190   -3.6290 n         1 MOL     -0.260033
     61 C19        -0.9550   -0.4150   -3.9910 c3        1 MOL     -0.078743
     62 C20        -1.3130   -1.6440   -3.0880 c         1 MOL      0.474173
     63 O10        -0.6360   -2.6910   -3.0630 o         1 MOL     -0.542057
     64 C21         0.5990   -0.0780   -4.1340 c3        1 MOL     -0.288557
     65 C22         1.2900    0.1790   -2.8550 c         1 MOL      0.467343
     66 N7          2.5810   -0.0190   -2.7490 n         1 MOL     -0.635643
     67 O11         0.7720    0.5610   -1.8330 o         1 MOL     -0.521179
     68 H28        -1.7300    0.9700   -2.6330 hn        1 MOL      0.257167
     69 H29        -1.3840   -0.7170   -4.9370 h1        1 MOL      0.178971
     70 H30         0.7660    0.8790   -4.6410 hc        1 MOL      0.128405
     71 H31         1.1660   -0.7450   -4.7810 hc        1 MOL      0.128405
     72 H32         3.1280   -0.2300   -3.5660 hn        1 MOL      0.335727
     73 H33         3.0250    0.2480   -1.8800 hn        1 MOL      0.335727
     74 N8         -2.3180   -1.5630   -2.2790 n         1 MOL     -0.179792
     75 C23        -2.8410   -2.7130   -1.4430 c3        1 MOL     -0.125348
     76 C24        -2.0820   -2.9740   -0.1560 c         1 MOL      0.454552
     77 O12        -2.3530   -3.9640    0.5010 o         1 MOL     -0.517493
     78 H34        -2.7710   -0.6730   -2.1540 hn        1 MOL      0.103331
     79 H35        -2.9620   -3.6210   -2.0340 h1        1 MOL      0.148674
     80 H36        -3.8780   -2.6250   -1.1120 h1        1 MOL      0.148674
     81 N9         -1.1550   -2.1310    0.3390 n         1 MOL     -0.539655
     82 C25        -0.6140   -2.2810    1.6890 c3        1 MOL      0.251106
     83 C26         0.6170   -1.2980    1.6770 c         1 MOL      0.483855
     84 O13         0.6250   -0.2180    1.1030 o         1 MOL     -0.648857
     85 C27        -1.5920   -1.8860    2.8050 c3        1 MOL     -0.258792
     86 C28        -0.8350   -1.3870    4.1410 ca        1 MOL      0.014558
     87 C29        -0.2390   -2.3950    4.9440 ca        1 MOL     -0.203893
     88 C30        -0.8250   -0.0390    4.5840 ca        1 MOL     -0.203893
     89 C31         0.4090   -2.0220    6.1430 ca        1 MOL     -0.174286
     90 C32        -0.1370    0.3690    5.7370 ca        1 MOL     -0.174286
     91 C33         0.5350   -0.6180    6.5180 ca        1 MOL      0.249780
     92 O14         1.1580   -0.2790    7.7350 oh        1 MOL     -0.448962
     93 H37        -1.0280   -1.2500   -0.1430 hn        1 MOL      0.399016
     94 H38        -0.3170   -3.3090    1.8850 h1        1 MOL      0.024034
     95 H39        -2.2260   -2.7370    3.0550 hc        1 MOL      0.142564
     96 H40        -2.2750   -1.0890    2.5240 hc        1 MOL      0.142564
     97 H41        -0.4450   -3.4390    4.7580 ha        1 MOL      0.155734
     98 H42        -1.4300    0.6440    4.0100 ha        1 MOL      0.155734
     99 H43         0.7990   -2.8180    6.7660 ha        1 MOL      0.121986
    100 H44        -0.1220    1.4160    5.9820 ha        1 MOL      0.121986
    101 H45         1.3350    0.6670    7.7990 ho        1 MOL      0.343122
    102 N10         1.7680   -1.7810    2.1730 n         1 MOL     -0.223767
    103 C34         3.1060   -1.3260    1.8220 c3        1 MOL     -0.127471
    104 C35         3.3560   -1.6180    0.3240 c         1 MOL      0.471991
    105 O15         3.9310   -0.8480   -0.4600 o         1 MOL     -0.632173
    106 C36         4.1300   -2.0290    2.7400 c3        1 MOL      0.111770
    107 C37         4.0130   -1.9680    4.2380 c3        1 MOL     -0.070908
    108 C38         5.5820   -1.7950    2.4060 c3        1 MOL     -0.520737
    109 C39         4.0020   -0.5100    4.8080 c3        1 MOL     -0.184978
    110 H46         1.6570   -2.6470    2.6640 hn        1 MOL      0.183438
    111 H47         3.2640   -0.2520    1.9210 h1        1 MOL      0.192097
    112 H48         4.0800   -3.0820    2.4460 hc        1 MOL     -0.036762
    113 H49         4.7830   -2.5810    4.7090 hc        1 MOL      0.075827
    114 H50         3.0730   -2.4160    4.5520 hc        1 MOL      0.075827
    115 H51         5.6560   -1.8230    1.3090 hc        1 MOL      0.146414
    116 H52         5.8640   -0.7770    2.6630 hc        1 MOL      0.146414
    117 H53         6.2510   -2.4660    2.9290 hc        1 MOL      0.146414
    118 H54         3.9930   -0.4550    5.8920 hc        1 MOL      0.046726
    119 H55         4.9220    0.0100    4.5280 hc        1 MOL      0.046726
    120 H56         3.2230    0.0690    4.3240 hc        1 MOL      0.046726
    121 N11         2.9280   -2.7600   -0.1620 n         1 MOL     -0.062452
    122 C40         2.8720   -3.1500   -1.5830 c3        1 MOL     -0.244921
    123 C41         4.3660   -3.3380   -2.0150 c         1 MOL      0.410167
    124 O16         4.7370   -3.0310   -3.1430 o         1 MOL     -0.493555
    125 C42         2.0160   -4.4350   -1.6930 c3        1 MOL      0.120464
    126 O17         0.6690   -4.1740   -1.2910 oh        1 MOL     -0.533048
    127 H57         2.2740   -3.1590    0.4980 hn        1 MOL      0.164763
    128 H58         2.4410   -2.3270   -2.1430 h1        1 MOL      0.219943
    129 H59         2.4140   -5.1570   -0.9790 h1        1 MOL      0.061188
    130 H60         1.8780   -4.8660   -2.6870 h1        1 MOL      0.061188
    131 H61         0.1800   -3.6920   -1.9530 ho        1 MOL      0.381357
    132 N12         5.2900   -3.7220   -1.0920 n         1 MOL     -0.312293
    133 C43         6.7640   -3.7450   -1.3960 c3        1 MOL      0.169632
    134 C44         7.3870   -2.3970   -1.8470 c         1 MOL      0.382437
    135 O18         8.4680   -2.4290   -2.4580 o         1 MOL     -0.501415
    136 C45         7.0090   -4.9230   -2.4330 c3        1 MOL     -0.517069
    137 H62         4.9570   -4.0390   -0.1960 hn        1 MOL      0.215413
    138 H63         7.2600   -4.1150   -0.4950 h1        1 MOL      0.057168
    139 H64         8.0820   -5.0530   -2.5650 hc        1 MOL      0.157355
    140 H65         6.5110   -5.8180   -2.0660 hc        1 MOL      0.157355
    141 H66         6.5900   -4.6940   -3.4100 hc        1 MOL      0.157355
    142 N13         6.7010   -1.2140   -1.7360 n         1 MOL     -0.306145
    143 C46         7.1290    0.0860   -2.0860 c3        1 MOL      0.257536
    144 C47         7.9510    0.7370   -0.9140 c         1 MOL      0.211052
    145 O19         7.5080    0.6580    0.2390 o         1 MOL     -0.399561
    146 C48         6.0070    1.0290   -2.5460 c3        1 MOL     -0.250678
    147 H67         5.7770   -1.2690   -1.3320 hn        1 MOL      0.272515
    148 H68         7.8350   -0.0430   -2.9040 h1        1 MOL      0.007748
    149 H69         5.2680    1.0270   -1.7400 hc        1 MOL      0.066927
    150 H70         6.4280    2.0040   -2.7960 hc        1 MOL      0.066927
    151 H71         5.3890    0.7010   -3.3880 hc        1 MOL      0.066927
    152 N14         8.9820    1.5010   -1.1670 n         1 MOL     -0.262822
    153 C49         9.6910    2.2990   -0.1540 c3        1 MOL     -0.020779
    154 C50        10.0920    1.4300    1.0380 c         1 MOL      0.416353
    155 O20        10.1730    1.9840    2.1330 o         1 MOL     -0.503947
    156 C51         8.8050    3.5010    0.2190 c3        1 MOL      0.060229
    157 C52         8.5550    4.4270   -0.9050 c3        1 MOL     -0.016260
    158 C53         7.6130    5.5330   -0.4160 c         1 MOL      0.580241
    159 O21         7.9290    6.7030   -0.6450 o         1 MOL     -0.666048
    160 O22         6.5380    5.1350    0.0620 o         1 MOL     -0.666048
    161 H72         9.3690    1.5000   -2.1090 hn        1 MOL      0.247519
    162 H73        10.6650    2.4630   -0.6290 h1        1 MOL      0.054914
    163 H74         9.3000    4.1370    0.9510 hc        1 MOL      0.015726
    164 H75         7.8880    3.1830    0.7100 hc        1 MOL      0.015726
    165 H76         8.2070    3.9070   -1.7900 hc        1 MOL     -0.029861
    166 H77         9.4680    4.8510   -1.3290 hc        1 MOL     -0.029861
    167 N15        10.4350    0.1570    0.8130 n         1 MOL     -0.291269
    168 C54        10.7890   -0.8810    1.8150 c3        1 MOL     -0.056083
    169 H78        11.6400   -1.4590    1.4530 h1        1 MOL      0.064488
    170 H79        11.0510   -0.4020    2.7590 h1        1 MOL      0.064488
    171 H80         9.9390   -1.5460    1.9670 h1        1 MOL      0.064488
    172 H81        10.4340   -0.1160   -0.1620 hn        1 MOL      0.217406
    173 Ca1         0.3020    2.1670    0.2280 Ca        1 MOL      1.755269
    174 O23         0.1200    4.7680    0.6530 oh        1 MOL     -0.819680
    175 H82        -0.6750    5.2590    0.8810 ho        1 MOL      0.410205
    176 H83         0.8330    5.3740    0.8550 ho        1 MOL      0.410205
    177 O24         2.2770    3.4900   -1.5790 oh        1 MOL     -0.819680
    178 H84         1.9290    3.5890   -2.4730 ho        1 MOL      0.410205
    179 H85         3.1770    3.7910   -1.6420 ho        1 MOL      0.410205
    180 O25        -0.6940    3.6180   -1.9240 oh        1 MOL     -0.819680
    181 H86        -0.9150    4.5430   -1.9890 ho        1 MOL      0.410205
    182 H87        -0.3510    3.3920   -2.7920 ho        1 MOL      0.410205
    183 O26         2.6720    2.4540    1.4710 oh        1 MOL     -0.819680
    184 H88         3.3550    2.9460    1.0180 ho        1 MOL      0.410205
    185 H89         2.9560    2.4230    2.3850 ho        1 MOL      0.410205
    186 O27        -0.0850    2.3740    2.8360 oh        1 MOL     -0.819680
    187 H90         0.7690    2.3950    3.2820 ho        1 MOL      0.410205
    188 H91        -0.6380    2.9490    3.3600 ho        1 MOL      0.410205
@<TRIPOS>BOND
     1    1    2 1   
     2    1    4 1   
     3    1    5 1   
     4    1    6 1   
     5    2    3 2   
     6    2    7 1   
     7    7    8 1   
     8    7   15 1   
     9    8    9 1   
    10    8   11 1   
    11    8   16 1   
    12    9   10 2   
    13    9   19 1   
    14   11   12 1   
    15   11   17 1   
    16   11   18 1   
    17   12   13 1   
    18   12   14 1   
    19   19   20 1   
    20   19   28 1   
    21   20   21 1   
    22   20   23 1   
    23   20   29 1   
    24   21   22 2   
    25   21   41 1   
    26   23   24 1   
    27   23   30 1   
    28   23   31 1   
    29   24   25 1   
    30   24   32 1   
    31   24   33 1   
    32   25   26 1   
    33   25   34 1   
    34   25   35 1   
    35   26   27 1   
    36   26   36 1   
    37   26   37 1   
    38   27   38 1   
    39   27   39 1   
    40   27   40 1   
    41   41   42 1   
    42   41   49 1   
    43   42   43 1   
    44   42   45 1   
    45   42   50 1   
    46   43   44 2   
    47   43   53 1   
    48   45   46 1   
    49   45   51 1   
    50   45   52 1   
    51   46   47 1   
    52   46   48 1   
    53   53   54 1   
    54   53   57 1   
    55   54   55 1   
    56   54   58 1   
    57   54   59 1   
    58   55   56 2   
    59   55   60 1   
    60   60   61 1   
    61   60   68 1   
    62   61   62 1   
    63   61   64 1   
    64   61   69 1   
    65   62   63 2   
    66   62   74 1   
    67   64   65 1   
    68   64   70 1   
    69   64   71 1   
    70   65   66 1   
    71   65   67 2   
    72   66   72 1   
    73   66   73 1   
    74   74   75 1   
    75   74   78 1   
    76   75   76 1   
    77   75   79 1   
    78   75   80 1   
    79   76   77 2   
    80   76   81 1   
    81   81   82 1   
    82   81   93 1   
    83   82   83 1   
    84   82   85 1   
    85   82   94 1   
    86   83   84 2   
    87   83  102 1   
    88   85   86 1   
    89   85   95 1   
    90   85   96 1   
    91   86   87 ar  
    92   86   88 ar  
    93   87   89 ar  
    94   87   97 1   
    95   88   90 ar  
    96   88   98 1   
    97   89   91 ar  
    98   89   99 1   
    99   90   91 ar  
   100   90  100 1   
   101   91   92 1   
   102   92  101 1   
   103  102  103 1   
   104  102  110 1   
   105  103  104 1   
   106  103  106 1   
   107  103  111 1   
   108  104  105 2   
   109  104  121 1   
   110  106  107 1   
   111  106  108 1   
   112  106  112 1   
   113  107  109 1   
   114  107  113 1   
   115  107  114 1   
   116  108  115 1   
   117  108  116 1   
   118  108  117 1   
   119  109  118 1   
   120  109  119 1   
   121  109  120 1   
   122  121  122 1   
   123  121  127 1   
   124  122  123 1   
   125  122  125 1   
   126  122  128 1   
   127  123  124 2   
   128  123  132 1   
   129  125  126 1   
   130  125  129 1   
   131  125  130 1   
   132  126  131 1   
   133  132  133 1   
   134  132  137 1   
   135  133  134 1   
   136  133  136 1   
   137  133  138 1   
   138  134  135 2   
   139  134  142 1   
   140  136  139 1   
   141  136  140 1   
   142  136  141 1   
   143  142  143 1   
   144  142  147 1   
   145  143  144 1   
   146  143  146 1   
   147  143  148 1   
   148  144  145 2   
   149  144  152 1   
   150  146  149 1   
   151  146  150 1   
   152  146  151 1   
   153  152  153 1   
   154  152  161 1   
   155  153  154 1   
   156  153  156 1   
   157  153  162 1   
   158  154  155 2   
   159  154  167 1   
   160  156  157 1   
   161  156  163 1   
   162  156  164 1   
   163  157  158 1   
   164  157  165 1   
   165  157  166 1   
   166  158  159 1   
   167  158  160 1   
   168  167  168 1   
   169  167  172 1   
   170  168  169 1   
   171  168  170 1   
   172  168  171 1   
   173  174  175 1   
   174  174  176 1   
   175  177  178 1   
   176  177  179 1   
   177  180  181 1   
   178  180  182 1   
   179  183  184 1   
   180  183  185 1   
   181  186  187 1   
   182  186  188 1   
@<TRIPOS>SUBSTRUCTURE
     1 MOL         1 TEMP              0 ****  ****    0 ROOT
