@<TRIPOS>MOLECULE
MOL
  192   187     1     0     0
SMALL
resp


@<TRIPOS>ATOM
      1 C1          4.3080   -2.3760   -2.9570 c3        1 MOL     -0.326890
      2 C2          3.3860   -2.8600   -1.8330 c         1 MOL      0.703095
      3 O1          2.3780   -2.2180   -1.4880 o         1 MOL     -0.562980
      4 H1          5.1860   -1.8970   -2.5260 hc        1 MOL      0.078734
      5 H2          4.6200   -3.2260   -3.5630 hc        1 MOL      0.078734
      6 H3          3.7740   -1.6590   -3.5820 hc        1 MOL      0.078734
      7 N1          3.6620   -3.9990   -1.1940 n         1 MOL     -0.306500
      8 C3          2.9460   -4.5430   -0.1270 c3        1 MOL     -0.072159
      9 C4          1.4760   -4.5570   -0.3180 c         1 MOL      0.693234
     10 O2          0.7940   -4.1390    0.6340 o         1 MOL     -0.568471
     11 C5          3.4620   -3.9740    1.2280 c3        1 MOL     -0.210095
     12 C6          4.9090   -4.2570    1.5960 c         1 MOL      0.653373
     13 O3          5.4060   -3.6370    2.5710 o         1 MOL     -0.694237
     14 O4          5.5770   -4.9760    0.8590 o         1 MOL     -0.694237
     15 H4          4.5540   -4.4110   -1.4590 hn        1 MOL      0.177253
     16 H5          3.1350   -5.6140   -0.1100 h1        1 MOL      0.085378
     17 H6          2.8640   -4.3630    2.0530 hc        1 MOL      0.096266
     18 H7          3.3490   -2.8960    1.1970 hc        1 MOL      0.096266
     19 N2          1.0440   -5.0080   -1.4930 n         1 MOL     -0.623170
     20 C7         -0.4170   -5.0450   -1.8210 c3        1 MOL      0.007009
     21 C8         -1.0790   -6.2840   -1.1400 c         1 MOL      0.636237
     22 O5         -0.6520   -7.4530   -1.2840 o         1 MOL     -0.594999
     23 C9         -0.5350   -5.0290   -3.3240 c3        1 MOL      0.100516
     24 C10         0.2520   -6.1260   -4.1160 c3        1 MOL      0.111158
     25 C11        -0.0730   -3.6170   -3.7200 c3        1 MOL     -0.176952
     26 C12        -0.1580   -6.1480   -5.5340 c3        1 MOL     -0.135544
     27 H8          1.7130   -5.3000   -2.1820 hn        1 MOL      0.253630
     28 H9         -0.9290   -4.1970   -1.3470 h1        1 MOL      0.147469
     29 H10        -1.6070   -5.1250   -3.5010 hc        1 MOL      0.024822
     30 H11        -0.0100   -7.0910   -3.6890 hc        1 MOL     -0.014909
     31 H12         1.3230   -5.9360   -4.1340 hc        1 MOL     -0.014909
     32 H13        -0.1280   -3.4130   -4.7940 hc        1 MOL      0.043791
     33 H14        -0.6200   -2.8050   -3.2330 hc        1 MOL      0.043791
     34 H15         0.9940   -3.4790   -3.5280 hc        1 MOL      0.043791
     35 H16        -1.2130   -6.4370   -5.6130 hc        1 MOL      0.015290
     36 H17        -0.1120   -5.2320   -6.1180 hc        1 MOL      0.015290
     37 H18         0.4370   -6.8960   -6.0540 hc        1 MOL      0.015290
     38 N3         -2.2860   -6.0560   -0.5050 n         1 MOL     -0.647883
     39 C13        -3.1300   -4.8480   -0.2430 c3        1 MOL      0.149712
     40 C14        -4.1410   -5.0620    0.8680 c         1 MOL      0.438209
     41 O6         -5.1510   -5.7410    0.6350 o         1 MOL     -0.500034
     42 C15        -3.8850   -4.3920   -1.4980 c3        1 MOL     -0.246812
     43 C16        -4.9420   -3.3030   -1.2480 c         1 MOL      0.681517
     44 O7         -4.7300   -2.5100   -0.2890 o         1 MOL     -0.681867
     45 O8         -5.8710   -3.0800   -2.0840 o         1 MOL     -0.681867
     46 H19        -2.7580   -6.9030   -0.2280 hn        1 MOL      0.339266
     47 H20        -2.4560   -4.0770    0.1290 h1        1 MOL      0.030626
     48 H21        -4.2960   -5.2420   -2.0340 hc        1 MOL      0.062442
     49 H22        -3.1490   -3.8870   -2.1220 hc        1 MOL      0.062442
     50 N4         -3.8560   -4.6050    2.0830 n         1 MOL     -0.322968
     51 C17        -4.7430   -4.8300    3.2600 c3        1 MOL     -0.277951
     52 C18        -5.9140   -3.9210    3.4210 c         1 MOL      0.805342
     53 O9         -6.5810   -4.0370    4.4330 o         1 MOL     -0.637411
     54 H23        -2.9520   -4.2290    2.3450 hn        1 MOL      0.317068
     55 H24        -4.1210   -4.7280    4.1530 h1        1 MOL      0.105357
     56 H25        -5.2630   -5.7860    3.2370 h1        1 MOL      0.105357
     57 N5         -6.0880   -2.9340    2.4990 n         1 MOL     -0.638443
     58 C19        -6.8850   -1.7190    2.8650 c3        1 MOL      0.172012
     59 C20        -7.7020   -1.1320    1.6880 c         1 MOL      0.485070
     60 O10        -8.7740   -0.5950    1.9310 o         1 MOL     -0.581436
     61 C21        -6.0500   -0.5680    3.3910 c3        1 MOL     -0.172824
     62 C22        -4.8300   -0.1750    2.5350 c         1 MOL      0.682250
     63 O11        -3.7510   -0.7310    2.6790 o         1 MOL     -0.652908
     64 O12        -4.9980    0.6990    1.6510 o         1 MOL     -0.652908
     65 H26        -5.4490   -2.8780    1.7210 hn        1 MOL      0.309905
     66 H27        -7.6980   -1.9490    3.5550 h1        1 MOL      0.053969
     67 H28        -5.7330   -0.9450    4.3630 hc        1 MOL      0.019917
     68 H29        -6.6870    0.2870    3.6240 hc        1 MOL      0.019917
     69 N6         -7.3150   -1.2800    0.3840 n         1 MOL     -0.392490
     70 C23        -7.8770   -0.5780   -0.8000 c3        1 MOL     -0.054901
     71 C24        -7.8040    0.9680   -0.8580 c         1 MOL      0.472826
     72 O13        -8.4320    1.5800   -1.6900 o         1 MOL     -0.622493
     73 H30        -6.3970   -1.6820    0.2380 hn        1 MOL      0.335070
     74 H31        -8.8990   -0.9300   -0.9640 h1        1 MOL      0.086826
     75 H32        -7.3860   -0.9470   -1.7090 h1        1 MOL      0.086826
     76 N7         -7.0280    1.5620    0.0590 n         1 MOL     -0.028301
     77 C25        -6.8940    3.0490    0.2800 c3        1 MOL      0.412413
     78 C26        -6.3490    3.7310   -0.9830 c         1 MOL      0.248090
     79 O14        -6.6170    4.9150   -1.1670 o         1 MOL     -0.531674
     80 C27        -8.1130    3.6760    0.9420 c3        1 MOL     -0.170541
     81 C28        -8.5730    2.9490    2.2650 c3        1 MOL      0.035482
     82 C29        -9.5650    3.7280    3.1340 c         1 MOL      0.627054
     83 N8        -10.4330    3.0370    3.8460 n         1 MOL     -0.799804
     84 O15        -9.6170    4.9130    3.1850 o         1 MOL     -0.576907
     85 H33        -6.6070    0.9450    0.7470 hn        1 MOL     -0.023511
     86 H34        -6.0420    3.1550    0.9530 h1        1 MOL      0.004537
     87 H35        -8.9710    3.6350    0.2670 hc        1 MOL      0.027353
     88 H36        -7.7560    4.6670    1.1970 hc        1 MOL      0.027353
     89 H37        -7.6950    2.8400    2.8990 hc        1 MOL     -0.007856
     90 H38        -8.9260    1.9440    2.0180 hc        1 MOL     -0.007856
     91 H39       -10.2910    2.0370    3.9630 hn        1 MOL      0.345997
     92 H40       -11.1840    3.5740    4.2500 hn        1 MOL      0.345997
     93 N9         -5.5320    3.0390   -1.7980 n         1 MOL     -0.124212
     94 C30        -4.9390    3.5770   -3.1070 c3        1 MOL     -0.025372
     95 C31        -3.3920    3.3970   -3.1380 c         1 MOL      0.489605
     96 O16        -2.7760    3.5600   -4.1860 o         1 MOL     -0.535255
     97 C32        -5.6670    2.9510   -4.4060 c3        1 MOL      0.293927
     98 C33        -5.4890    1.3960   -4.4620 c3        1 MOL     -0.337056
     99 C34        -7.1690    3.2200   -4.4360 c3        1 MOL     -0.337056
    100 H41        -5.5030    2.0750   -1.5010 hn        1 MOL      0.126225
    101 H42        -5.1970    4.6210   -3.2160 h1        1 MOL      0.069312
    102 H43        -5.1250    3.3910   -5.2450 hc        1 MOL     -0.050304
    103 H44        -5.9360    0.9160   -3.5850 hc        1 MOL      0.077906
    104 H45        -6.0460    1.0780   -5.3400 hc        1 MOL      0.077906
    105 H46        -4.4540    1.0840   -4.6000 hc        1 MOL      0.077906
    106 H47        -7.6680    2.7750   -3.5660 hc        1 MOL      0.077906
    107 H48        -7.3580    4.2930   -4.4120 hc        1 MOL      0.077906
    108 H49        -7.6320    2.8950   -5.3650 hc        1 MOL      0.077906
    109 N10        -2.7210    2.9590   -2.0080 n         1 MOL     -0.461191
    110 C35        -1.4270    2.1860   -2.0750 c3        1 MOL      0.268383
    111 C36        -0.5250    2.4680   -0.8590 c         1 MOL      0.410651
    112 O17        -1.1110    2.6390    0.2100 o         1 MOL     -0.493885
    113 C37        -1.6970    0.6020   -2.1770 c3        1 MOL     -0.220223
    114 C38        -0.4100   -0.1190   -2.3090 c         1 MOL      0.559232
    115 N11        -0.2600   -1.0780   -1.4100 n         1 MOL     -0.719091
    116 O18         0.4530    0.1710   -3.1050 o         1 MOL     -0.573013
    117 H50        -3.3010    2.7770   -1.1940 hn        1 MOL      0.197520
    118 H51        -0.8530    2.5050   -2.9440 h1        1 MOL      0.020546
    119 H52        -2.3400    0.4420   -3.0410 hc        1 MOL      0.116604
    120 H53        -2.2480    0.2920   -1.2920 hc        1 MOL      0.116604
    121 H54        -0.9370   -1.2060   -0.6740 hn        1 MOL      0.365977
    122 H55         0.6750   -1.4750   -1.3740 hn        1 MOL      0.365977
    123 N12         0.7780    2.5410   -1.0080 n         1 MOL     -0.491968
    124 C39         1.5960    3.1580    0.0470 c3        1 MOL      0.318742
    125 C40         2.9190    3.8300   -0.4290 c         1 MOL      0.437011
    126 O19         3.2840    3.6650   -1.5870 o         1 MOL     -0.547318
    127 C41         1.8990    2.0480    1.1140 c3        1 MOL     -0.146853
    128 C42         2.2310    2.5620    2.4900 ca        1 MOL      0.093949
    129 C43         3.5510    2.3730    3.0160 ca        1 MOL     -0.210341
    130 C44         1.2140    2.9200    3.3890 ca        1 MOL     -0.210341
    131 C45         3.7880    2.6250    4.4020 ca        1 MOL     -0.178314
    132 C46         1.4280    3.1750    4.7700 ca        1 MOL     -0.178314
    133 C47         2.7760    3.0490    5.1950 ca        1 MOL      0.235251
    134 O20         3.0550    3.2560    6.4860 oh        1 MOL     -0.473335
    135 H56         1.1430    2.4300   -1.9440 hn        1 MOL      0.295100
    136 H57         1.0790    3.9610    0.5680 h1        1 MOL      0.000718
    137 H58         2.7760    1.4980    0.7860 hc        1 MOL      0.089982
    138 H59         1.1310    1.2800    1.1610 hc        1 MOL      0.089982
    139 H60         4.3330    2.1240    2.3090 ha        1 MOL      0.152544
    140 H61         0.2080    3.0020    2.9930 ha        1 MOL      0.152544
    141 H62         4.7840    2.6600    4.8230 ha        1 MOL      0.143274
    142 H63         0.5820    3.5030    5.3650 ha        1 MOL      0.143274
    143 H64         3.9850    3.1360    6.6560 ho        1 MOL      0.333554
    144 N13         3.6410    4.4740    0.4840 n         1 MOL     -0.493440
    145 C48         4.9570    5.0590    0.2040 c3        1 MOL      0.392063
    146 C49         5.9970    4.4180    1.1460 c         1 MOL      0.245213
    147 O21         6.3580    4.9030    2.2060 o         1 MOL     -0.531952
    148 C50         4.8540    6.6510    0.4340 c3        1 MOL      0.035957
    149 C51         4.1050    7.1770   -0.7950 c3        1 MOL     -0.148551
    150 C52         4.2160    8.7320   -0.9200 c         1 MOL      0.588738
    151 O22         4.0030    9.4950    0.0790 o         1 MOL     -0.649950
    152 O23         4.7970    9.2120   -1.9470 o         1 MOL     -0.649950
    153 H65         3.3160    4.5440    1.4380 hn        1 MOL      0.269050
    154 H66         5.2600    4.8430   -0.8240 h1        1 MOL      0.026853
    155 H67         5.8620    7.0010    0.6410 hc        1 MOL      0.010686
    156 H68         4.2330    6.7930    1.3220 hc        1 MOL      0.010686
    157 H69         3.0650    6.8850   -0.6300 hc        1 MOL      0.015367
    158 H70         4.4620    6.7550   -1.7340 hc        1 MOL      0.015367
    159 N14         6.6400    3.2600    0.7150 n         1 MOL     -0.045309
    160 C53         6.5150    2.4610   -0.4570 c3        1 MOL     -1.065127
    161 C54         7.1230    3.1840   -1.7390 c         1 MOL      0.827840
    162 O24         8.1410    3.7790   -1.7110 o         1 MOL     -0.557043
    163 C55         7.0670    1.1060   -0.1750 c3        1 MOL      0.367137
    164 C56         6.7340    0.1610   -1.2700 c3        1 MOL     -0.092159
    165 C57         7.0010   -1.2960   -0.8500 c         1 MOL      0.690733
    166 O25         6.1560   -1.9560   -0.1810 o         1 MOL     -0.773490
    167 O26         8.1740   -1.7530   -0.9400 o         1 MOL     -0.773490
    168 H71         7.2440    2.9070    1.4370 hn        1 MOL      0.213437
    169 H72         5.4470    2.3250   -0.6080 h1        1 MOL      0.278433
    170 H73         6.7910    0.7660    0.8270 hc        1 MOL      0.042574
    171 H74         8.1560    1.0650   -0.1300 hc        1 MOL      0.042574
    172 H75         7.3640    0.4290   -2.1250 hc        1 MOL      0.001526
    173 H76         5.6970    0.2060   -1.5920 hc        1 MOL      0.001526
    174 N15         6.3910    3.1280   -2.8710 n         1 MOL     -0.318304
    175 C58         6.8380    3.7200   -4.1250 c3        1 MOL     -0.089211
    176 H77         7.8490    4.1100   -4.0020 h1        1 MOL      0.059603
    177 H78         6.8340    2.9610   -4.9080 h1        1 MOL      0.059603
    178 H79         6.1670    4.5320   -4.4030 h1        1 MOL      0.059603
    179 H80         5.5680    2.5450   -2.8130 hn        1 MOL      0.275484
    180 Ca1         7.7170   -3.4370    1.1890 Ca        1 MOL      1.648512
    181 O27         8.5280   -4.0560    3.7080 oh        1 MOL     -0.804719
    182 H81         9.4550   -3.9540    3.9340 ho        1 MOL      0.375019
    183 H82         8.1810   -4.6490    4.3770 ho        1 MOL      0.375019
    184 O28        10.0280   -2.1890    1.4630 oh        1 MOL     -0.804719
    185 H83        10.5200   -1.9260    2.2460 ho        1 MOL      0.375019
    186 H84        10.6920   -2.2220    0.7730 ho        1 MOL      0.375019
    187 O29         7.4590   -0.9910    2.7550 oh        1 MOL     -0.804719
    188 H85         6.7210   -1.0800    3.3530 ho        1 MOL      0.375019
    189 H86         8.0660   -0.4020    3.2120 ho        1 MOL      0.375019
    190 O30         9.1400   -5.6260    1.2770 oh        1 MOL     -0.804719
    191 H87         9.0670   -6.5720    1.4320 ho        1 MOL      0.375019
    192 H88        10.0760   -5.4490    1.3460 ho        1 MOL      0.375019
@<TRIPOS>BOND
     1    1    2 1   
     2    1    4 1   
     3    1    5 1   
     4    1    6 1   
     5    2    3 2   
     6    2    7 1   
     7    7    8 1   
     8    7   15 1   
     9    8    9 1   
    10    8   11 1   
    11    8   16 1   
    12    9   10 2   
    13    9   19 1   
    14   11   12 1   
    15   11   17 1   
    16   11   18 1   
    17   12   13 1   
    18   12   14 1   
    19   19   20 1   
    20   19   27 1   
    21   20   21 1   
    22   20   23 1   
    23   20   28 1   
    24   21   22 2   
    25   21   38 1   
    26   23   24 1   
    27   23   25 1   
    28   23   29 1   
    29   24   26 1   
    30   24   30 1   
    31   24   31 1   
    32   25   32 1   
    33   25   33 1   
    34   25   34 1   
    35   26   35 1   
    36   26   36 1   
    37   26   37 1   
    38   38   39 1   
    39   38   46 1   
    40   39   40 1   
    41   39   42 1   
    42   39   47 1   
    43   40   41 2   
    44   40   50 1   
    45   42   43 1   
    46   42   48 1   
    47   42   49 1   
    48   43   44 1   
    49   43   45 1   
    50   50   51 1   
    51   50   54 1   
    52   51   52 1   
    53   51   55 1   
    54   51   56 1   
    55   52   53 2   
    56   52   57 1   
    57   57   58 1   
    58   57   65 1   
    59   58   59 1   
    60   58   61 1   
    61   58   66 1   
    62   59   60 2   
    63   59   69 1   
    64   61   62 1   
    65   61   67 1   
    66   61   68 1   
    67   62   63 1   
    68   62   64 1   
    69   69   70 1   
    70   69   73 1   
    71   70   71 1   
    72   70   74 1   
    73   70   75 1   
    74   71   72 2   
    75   71   76 1   
    76   76   77 1   
    77   76   85 1   
    78   77   78 1   
    79   77   80 1   
    80   77   86 1   
    81   78   79 2   
    82   78   93 1   
    83   80   81 1   
    84   80   87 1   
    85   80   88 1   
    86   81   82 1   
    87   81   89 1   
    88   81   90 1   
    89   82   83 1   
    90   82   84 2   
    91   83   91 1   
    92   83   92 1   
    93   93   94 1   
    94   93  100 1   
    95   94   95 1   
    96   94   97 1   
    97   94  101 1   
    98   95   96 2   
    99   95  109 1   
   100   97   98 1   
   101   97   99 1   
   102   97  102 1   
   103   98  103 1   
   104   98  104 1   
   105   98  105 1   
   106   99  106 1   
   107   99  107 1   
   108   99  108 1   
   109  109  110 1   
   110  109  117 1   
   111  110  111 1   
   112  110  113 1   
   113  110  118 1   
   114  111  112 2   
   115  111  123 1   
   116  113  114 1   
   117  113  119 1   
   118  113  120 1   
   119  114  115 1   
   120  114  116 2   
   121  115  121 1   
   122  115  122 1   
   123  123  124 1   
   124  123  135 1   
   125  124  125 1   
   126  124  127 1   
   127  124  136 1   
   128  125  126 2   
   129  125  144 1   
   130  127  128 1   
   131  127  137 1   
   132  127  138 1   
   133  128  129 ar  
   134  128  130 ar  
   135  129  131 ar  
   136  129  139 1   
   137  130  132 ar  
   138  130  140 1   
   139  131  133 ar  
   140  131  141 1   
   141  132  133 ar  
   142  132  142 1   
   143  133  134 1   
   144  134  143 1   
   145  144  145 1   
   146  144  153 1   
   147  145  146 1   
   148  145  148 1   
   149  145  154 1   
   150  146  147 2   
   151  146  159 1   
   152  148  149 1   
   153  148  155 1   
   154  148  156 1   
   155  149  150 1   
   156  149  157 1   
   157  149  158 1   
   158  150  151 1   
   159  150  152 1   
   160  159  160 1   
   161  159  168 1   
   162  160  161 1   
   163  160  163 1   
   164  160  169 1   
   165  161  162 2   
   166  161  174 1   
   167  163  164 1   
   168  163  170 1   
   169  163  171 1   
   170  164  165 1   
   171  164  172 1   
   172  164  173 1   
   173  165  166 1   
   174  165  167 1   
   175  174  175 1   
   176  174  179 1   
   177  175  176 1   
   178  175  177 1   
   179  175  178 1   
   180  181  182 1   
   181  181  183 1   
   182  184  185 1   
   183  184  186 1   
   184  187  188 1   
   185  187  189 1   
   186  190  191 1   
   187  190  192 1   
@<TRIPOS>SUBSTRUCTURE
     1 MOL         1 TEMP              0 ****  ****    0 ROOT
