@<TRIPOS>MOLECULE
MOL
  181   177     1     0     0
SMALL
resp


@<TRIPOS>ATOM
      1 C1         10.4080   -6.8870   -0.1240 c3        1 MOL     -0.394699
      2 C2          9.3420   -6.0090   -0.8530 c         1 MOL      0.770683
      3 O1          8.4450   -6.5480   -1.4450 o         1 MOL     -0.613333
      4 H1         11.2490   -6.2610    0.1760 hc        1 MOL      0.094110
      5 H2          9.9610   -7.3430    0.7580 hc        1 MOL      0.094110
      6 H3         10.7600   -7.6670   -0.8000 hc        1 MOL      0.094110
      7 N1          9.3770   -4.7100   -0.8230 n         1 MOL     -0.745310
      8 C3         10.2690   -3.8990    0.0430 c3        1 MOL      0.242498
      9 C4         10.7520   -2.6290   -0.6190 c         1 MOL      0.442167
     10 O2         11.6350   -2.0410   -0.0280 o         1 MOL     -0.576024
     11 C5          9.5850   -3.5110    1.3760 c3        1 MOL     -0.062170
     12 C6          8.2470   -2.7500    1.2850 c         1 MOL      0.760929
     13 O3          7.6000   -2.6520    2.3490 o         1 MOL     -0.793990
     14 O4          7.7870   -2.3590    0.1770 o         1 MOL     -0.793990
     15 H4          8.7170   -4.2690   -1.4570 hn        1 MOL      0.377712
     16 H5         11.2130   -4.3930    0.3060 h1        1 MOL      0.040545
     17 H6         10.3020   -2.8770    1.8970 hc        1 MOL      0.017675
     18 H7          9.5760   -4.3450    2.0700 hc        1 MOL      0.017675
     19 N2         10.2060   -2.1420   -1.7360 n         1 MOL     -0.506447
     20 C7         10.8030   -1.0070   -2.4950 c3        1 MOL      0.371183
     21 C8         10.1240    0.3490   -2.2570 c         1 MOL      0.396018
     22 O5         10.5070    1.3130   -2.8810 o         1 MOL     -0.550228
     23 C9         10.9540   -1.4330   -3.9370 c3        1 MOL     -0.291308
     24 H8          9.4590   -2.6610   -2.1830 hn        1 MOL      0.311798
     25 H9         11.8320   -0.8490   -2.1650 h1        1 MOL      0.021583
     26 H10        11.4960   -2.3760   -4.0120 hc        1 MOL      0.070170
     27 H11         9.9480   -1.4760   -4.3610 hc        1 MOL      0.070170
     28 H12        11.5800   -0.7730   -4.5270 hc        1 MOL      0.070170
     29 N3          9.1960    0.3730   -1.3280 n         1 MOL     -0.354582
     30 C10         8.3840    1.5270   -0.9710 c3        1 MOL      0.120907
     31 C11         7.8450    1.4200    0.4990 c         1 MOL      0.358627
     32 O6          7.7500    0.3150    1.0680 o         1 MOL     -0.478595
     33 C12         7.1520    1.6690   -1.9040 c3        1 MOL     -0.208091
     34 C13         6.4190    0.3240   -2.1250 c         1 MOL      0.665653
     35 O7          6.6750   -0.4770   -3.0600 o         1 MOL     -0.680730
     36 O8          5.6690   -0.1080   -1.2320 o         1 MOL     -0.680730
     37 H13         8.9670   -0.4910   -0.8560 hn        1 MOL      0.325101
     38 H14         9.0580    2.3770   -1.0940 h1        1 MOL      0.043970
     39 H15         7.5210    2.0020   -2.8760 hc        1 MOL      0.059049
     40 H16         6.5080    2.4190   -1.4620 hc        1 MOL      0.059049
     41 N4          7.5940    2.5290    1.1440 n         1 MOL     -0.359939
     42 C14         6.8970    2.5440    2.4510 c3        1 MOL      0.012213
     43 C15         5.4080    2.1540    2.3910 c         1 MOL      0.799504
     44 O9          5.0790    1.2000    1.7120 o         1 MOL     -0.630679
     45 H17         7.6480    3.4280    0.6840 hn        1 MOL      0.277535
     46 H18         7.0350    3.4610    3.0170 h1        1 MOL      0.033985
     47 H19         7.2810    1.7460    3.0860 h1        1 MOL      0.033985
     48 N5          4.5410    2.8740    3.0370 n         1 MOL     -0.833274
     49 C16         3.0340    2.7040    2.9880 c3        1 MOL      0.429014
     50 C17         2.3890    3.8570    2.2520 c         1 MOL      0.557757
     51 O10         3.0920    4.8800    1.9930 o         1 MOL     -0.541135
     52 C18         2.3540    2.5270    4.3890 c3        1 MOL     -0.452094
     53 C19         2.7460    1.3220    5.1530 c         1 MOL      0.877700
     54 N6          2.4160    1.3760    6.4450 n         1 MOL     -0.850461
     55 O11         3.2550    0.3780    4.6470 o         1 MOL     -0.614836
     56 H20         4.7740    3.5100    3.7890 hn        1 MOL      0.357769
     57 H21         2.7590    1.8090    2.4220 h1        1 MOL      0.039826
     58 H22         1.2730    2.6270    4.2500 hc        1 MOL      0.098581
     59 H23         2.6900    3.3520    5.0150 hc        1 MOL      0.098581
     60 H24         1.8780    2.1500    6.8090 hn        1 MOL      0.369628
     61 H25         2.7140    0.7130    7.1550 hn        1 MOL      0.369628
     62 N7          1.1300    3.8250    1.9470 n         1 MOL     -0.586295
     63 C20         0.5040    4.7490    1.0460 c3        1 MOL      0.066490
     64 C21         1.0620    4.6310   -0.4430 c         1 MOL      0.561948
     65 O12         1.8840    3.7630   -0.8220 o         1 MOL     -0.514425
     66 H26         0.4940    3.2840    2.5090 hn        1 MOL      0.362089
     67 H27         0.7020    5.8090    1.2020 h1        1 MOL      0.061170
     68 H28        -0.5700    4.5240    1.0100 h1        1 MOL      0.061170
     69 N8          0.5330    5.4170   -1.3780 n         1 MOL     -0.566045
     70 C22        -0.8500    6.0900   -1.2720 c3        1 MOL      0.116900
     71 C23        -1.9960    5.0950   -1.4720 c         1 MOL      0.354913
     72 O13        -3.0800    5.5140   -0.9840 o         1 MOL     -0.547821
     73 C24        -1.0210    7.1930   -2.3420 c3        1 MOL      0.384524
     74 C25         0.1000    8.1940   -2.2360 c3        1 MOL     -0.395344
     75 O14        -0.8450    6.5740   -3.6120 oh        1 MOL     -0.642120
     76 H29         1.0720    5.4510   -2.2300 hn        1 MOL      0.334452
     77 H30        -0.9590    6.5570   -0.2920 h1        1 MOL      0.052218
     78 H31        -2.0190    7.5960   -2.1560 h1        1 MOL     -0.002296
     79 H32        -0.9530    7.2740   -4.2600 ho        1 MOL      0.398561
     80 H33         1.0890    7.7380   -2.2840 hc        1 MOL      0.090075
     81 H34        -0.0410    8.9480   -3.0050 hc        1 MOL      0.090075
     82 H35        -0.1020    8.5820   -1.2370 hc        1 MOL      0.090075
     83 N9         -1.8130    3.8480   -1.9240 n         1 MOL     -0.154997
     84 C26        -2.8380    2.8570   -1.7970 c3        1 MOL      0.150413
     85 C27        -2.5170    1.9850   -0.6140 c         1 MOL      0.490594
     86 O15        -1.3760    1.6620   -0.2620 o         1 MOL     -0.586369
     87 C28        -2.7410    2.0230   -3.1320 c3        1 MOL      0.016124
     88 C29        -3.5720    2.6690   -4.2440 c3        1 MOL      0.153430
     89 C30        -3.2360    0.5640   -2.9830 c3        1 MOL     -0.436071
     90 C31        -3.4080    4.1290   -4.6790 c3        1 MOL     -0.308554
     91 H36        -0.8730    3.5780   -2.1670 hn        1 MOL      0.184804
     92 H37        -3.8220    3.2820   -1.6500 h1        1 MOL      0.071258
     93 H38        -1.7570    2.0600   -3.5960 hc        1 MOL      0.032056
     94 H39        -4.5970    2.5590   -3.9190 hc        1 MOL     -0.015998
     95 H40        -3.4790    2.0160   -5.1130 hc        1 MOL     -0.015998
     96 H41        -4.3130    0.4370   -2.8660 hc        1 MOL      0.126630
     97 H42        -2.8980   -0.0540   -3.8050 hc        1 MOL      0.126630
     98 H43        -2.6130    0.0640   -2.2470 hc        1 MOL      0.126630
     99 H44        -2.3350    4.2580   -4.8610 hc        1 MOL      0.058827
    100 H45        -3.8190    4.4210   -5.6440 hc        1 MOL      0.058827
    101 H46        -3.7320    4.8150   -3.8930 hc        1 MOL      0.058827
    102 N10        -3.5260    1.5270    0.1470 n         1 MOL     -0.504268
    103 C32        -4.9930    1.7650    0.1260 c3        1 MOL      0.205718
    104 C33        -5.9690    0.5830    0.3890 c         1 MOL      0.423742
    105 O16        -5.5840   -0.3220    1.0920 o         1 MOL     -0.460824
    106 C34        -5.3130    2.9040    1.1270 c3        1 MOL     -0.162802
    107 C35        -4.8690    2.6290    2.5610 c         1 MOL      0.687288
    108 O17        -5.6060    2.0540    3.3980 o         1 MOL     -0.713535
    109 O18        -3.6830    2.8370    2.8890 o         1 MOL     -0.713535
    110 H47        -3.2100    0.8680    0.8450 hn        1 MOL      0.344375
    111 H48        -5.3840    2.1950   -0.8010 h1        1 MOL      0.030287
    112 H49        -6.3600    3.1700    1.2450 hc        1 MOL      0.000486
    113 H50        -4.8390    3.8250    0.7990 hc        1 MOL      0.000486
    114 N11        -7.1460    0.6530   -0.2690 n         1 MOL     -0.527352
    115 C36        -8.2990   -0.1270    0.1600 c3        1 MOL      0.501066
    116 C37        -9.1580   -0.6990   -1.0670 c         1 MOL      0.061551
    117 O19        -9.2630   -0.0570   -2.1220 o         1 MOL     -0.436555
    118 C38        -9.0400    0.8480    1.1610 c3        1 MOL      0.101471
    119 C39       -10.0620    0.2030    2.0470 ca        1 MOL      0.037311
    120 C40       -11.2910   -0.1760    1.4650 ca        1 MOL     -0.159168
    121 C41        -9.8380    0.0290    3.4000 ca        1 MOL     -0.159168
    122 C42       -12.3110   -0.7320    2.2600 ca        1 MOL     -0.137903
    123 C43       -10.8060   -0.6820    4.1790 ca        1 MOL     -0.137903
    124 C44       -12.0200   -1.0690    3.5920 ca        1 MOL     -0.120100
    125 H51        -7.2510    1.4640   -0.8610 hn        1 MOL      0.288424
    126 H52        -7.9560   -1.0170    0.6690 h1        1 MOL     -0.091811
    127 H53        -9.5980    1.5410    0.5300 hc        1 MOL     -0.032273
    128 H54        -8.3570    1.5110    1.6930 hc        1 MOL     -0.032273
    129 H55       -11.4420   -0.1240    0.4020 ha        1 MOL      0.146620
    130 H56        -8.9230    0.4100    3.8230 ha        1 MOL      0.146620
    131 H57       -13.2170   -1.0080    1.7600 ha        1 MOL      0.116288
    132 H58       -10.5800   -0.9210    5.2040 ha        1 MOL      0.116288
    133 H59       -12.7470   -1.5890    4.2020 ha        1 MOL      0.088980
    134 N12        -9.8130   -1.9310   -1.0090 n         1 MOL      0.016925
    135 C45        -9.7580   -2.8290    0.1560 c3        1 MOL     -0.154485
    136 C46        -8.4210   -3.5270    0.2870 c         1 MOL      0.779537
    137 O20        -8.0730   -3.8470    1.4150 o         1 MOL     -0.614948
    138 C47       -10.9630   -3.7320   -0.0460 c3        1 MOL     -0.055356
    139 C48       -11.0820   -3.8310   -1.5440 c3        1 MOL     -0.074038
    140 C49       -10.7810   -2.4000   -2.0390 c3        1 MOL     -0.176427
    141 H60        -9.9730   -2.3090    1.0930 h1        1 MOL      0.082981
    142 H61       -10.6920   -4.6620    0.4580 hc        1 MOL      0.035006
    143 H62       -11.8410   -3.1940    0.3070 hc        1 MOL      0.035006
    144 H63       -10.2920   -4.5020   -1.8740 hc        1 MOL      0.034797
    145 H64       -12.1330   -4.0580   -1.7260 hc        1 MOL      0.034797
    146 H65       -10.4060   -2.3710   -3.0600 h1        1 MOL      0.107685
    147 H66       -11.6800   -1.7880   -2.0070 h1        1 MOL      0.107685
    148 N13        -7.7440   -3.8110   -0.8100 n         1 MOL     -0.540415
    149 C50        -6.3380   -4.2320   -0.7610 c3        1 MOL      0.245237
    150 C51        -6.1020   -5.7270   -0.4570 c         1 MOL      0.343245
    151 O21        -6.3300   -6.6200   -1.3060 o         1 MOL     -0.562107
    152 C52        -5.7110   -3.9240   -2.1560 c3        1 MOL      0.135132
    153 C53        -5.7250   -2.3710   -2.5590 c3        1 MOL     -0.243762
    154 C54        -5.3660   -2.1340   -4.0260 c         1 MOL      0.799184
    155 O22        -6.1110   -1.5070   -4.8610 o         1 MOL     -0.750344
    156 O23        -4.3870   -2.7170   -4.5330 o         1 MOL     -0.750344
    157 H67        -8.1940   -3.5600   -1.6880 hn        1 MOL      0.361704
    158 H68        -5.7690   -3.6580   -0.0290 h1        1 MOL      0.038420
    159 H69        -6.2530   -4.4610   -2.9370 hc        1 MOL     -0.022977
    160 H70        -4.6760   -4.2650   -2.1940 hc        1 MOL     -0.022977
    161 H71        -4.9900   -1.9290   -1.8930 hc        1 MOL     -0.011162
    162 H72        -6.7440   -1.9980   -2.4800 hc        1 MOL     -0.011162
    163 N14        -5.7380   -6.1450    0.7700 n         1 MOL     -0.277895
    164 C55        -5.5180   -5.3850    1.9800 c3        1 MOL     -0.259179
    165 H73        -4.7440   -4.6380    1.8030 h1        1 MOL      0.107529
    166 H74        -6.4430   -4.8870    2.2700 h1        1 MOL      0.107529
    167 H75        -5.2000   -6.0560    2.7780 h1        1 MOL      0.107529
    168 H76        -5.7140   -7.1410    0.9620 hn        1 MOL      0.261001
    169 Ca1         5.6270   -1.3120    1.1480 Ca        1 MOL      1.695594
    170 O24         4.6400   -2.7470   -0.7840 oh        1 MOL     -0.796815
    171 H77         4.6390   -2.2730   -1.6130 ho        1 MOL      0.403086
    172 H78         4.1140   -3.5240   -0.9460 ho        1 MOL      0.403086
    173 O25         5.5630   -0.6810    3.6430 oh        1 MOL     -0.796815
    174 H79         4.9380   -0.2820    4.2350 ho        1 MOL      0.403086
    175 H80         6.1200   -1.2210    4.2110 ho        1 MOL      0.403086
    176 O26         2.8150   -0.9040    1.1860 oh        1 MOL     -0.796815
    177 H81         2.4330   -0.0870    0.8890 ho        1 MOL      0.403086
    178 H82         2.0660   -1.4900    1.3140 ho        1 MOL      0.403086
    179 O27         4.2170   -3.3920    2.1560 oh        1 MOL     -0.796815
    180 H83         4.7270   -3.7100    2.9040 ho        1 MOL      0.403086
    181 H84         3.4540   -3.9560    2.1280 ho        1 MOL      0.403086
@<TRIPOS>BOND
     1    1    2 1   
     2    1    4 1   
     3    1    5 1   
     4    1    6 1   
     5    2    3 2   
     6    2    7 1   
     7    7    8 1   
     8    7   15 1   
     9    8    9 1   
    10    8   11 1   
    11    8   16 1   
    12    9   10 2   
    13    9   19 1   
    14   11   12 1   
    15   11   17 1   
    16   11   18 1   
    17   12   13 1   
    18   12   14 1   
    19   19   20 1   
    20   19   24 1   
    21   20   21 1   
    22   20   23 1   
    23   20   25 1   
    24   21   22 2   
    25   21   29 1   
    26   23   26 1   
    27   23   27 1   
    28   23   28 1   
    29   29   30 1   
    30   29   37 1   
    31   30   31 1   
    32   30   33 1   
    33   30   38 1   
    34   31   32 2   
    35   31   41 1   
    36   33   34 1   
    37   33   39 1   
    38   33   40 1   
    39   34   35 1   
    40   34   36 1   
    41   41   42 1   
    42   41   45 1   
    43   42   43 1   
    44   42   46 1   
    45   42   47 1   
    46   43   44 2   
    47   43   48 1   
    48   48   49 1   
    49   48   56 1   
    50   49   50 1   
    51   49   52 1   
    52   49   57 1   
    53   50   51 2   
    54   50   62 1   
    55   52   53 1   
    56   52   58 1   
    57   52   59 1   
    58   53   54 1   
    59   53   55 2   
    60   54   60 1   
    61   54   61 1   
    62   62   63 1   
    63   62   66 1   
    64   63   64 1   
    65   63   67 1   
    66   63   68 1   
    67   64   65 2   
    68   64   69 1   
    69   69   70 1   
    70   69   76 1   
    71   70   71 1   
    72   70   73 1   
    73   70   77 1   
    74   71   72 2   
    75   71   83 1   
    76   73   74 1   
    77   73   75 1   
    78   73   78 1   
    79   74   80 1   
    80   74   81 1   
    81   74   82 1   
    82   75   79 1   
    83   83   84 1   
    84   83   91 1   
    85   84   85 1   
    86   84   87 1   
    87   84   92 1   
    88   85   86 2   
    89   85  102 1   
    90   87   88 1   
    91   87   89 1   
    92   87   93 1   
    93   88   90 1   
    94   88   94 1   
    95   88   95 1   
    96   89   96 1   
    97   89   97 1   
    98   89   98 1   
    99   90   99 1   
   100   90  100 1   
   101   90  101 1   
   102  102  103 1   
   103  102  110 1   
   104  103  104 1   
   105  103  106 1   
   106  103  111 1   
   107  104  105 2   
   108  104  114 1   
   109  106  107 1   
   110  106  112 1   
   111  106  113 1   
   112  107  108 1   
   113  107  109 1   
   114  114  115 1   
   115  114  125 1   
   116  115  116 1   
   117  115  118 1   
   118  115  126 1   
   119  116  117 2   
   120  116  134 1   
   121  118  119 1   
   122  118  127 1   
   123  118  128 1   
   124  119  120 ar  
   125  119  121 ar  
   126  120  122 ar  
   127  120  129 1   
   128  121  123 ar  
   129  121  130 1   
   130  122  124 ar  
   131  122  131 1   
   132  123  124 ar  
   133  123  132 1   
   134  124  133 1   
   135  134  135 1   
   136  134  140 1   
   137  135  136 1   
   138  135  138 1   
   139  135  141 1   
   140  136  137 2   
   141  136  148 1   
   142  138  139 1   
   143  138  142 1   
   144  138  143 1   
   145  139  140 1   
   146  139  144 1   
   147  139  145 1   
   148  140  146 1   
   149  140  147 1   
   150  148  149 1   
   151  148  157 1   
   152  149  150 1   
   153  149  152 1   
   154  149  158 1   
   155  150  151 2   
   156  150  163 1   
   157  152  153 1   
   158  152  159 1   
   159  152  160 1   
   160  153  154 1   
   161  153  161 1   
   162  153  162 1   
   163  154  155 1   
   164  154  156 1   
   165  163  164 1   
   166  163  168 1   
   167  164  165 1   
   168  164  166 1   
   169  164  167 1   
   170  170  171 1   
   171  170  172 1   
   172  173  174 1   
   173  173  175 1   
   174  176  177 1   
   175  176  178 1   
   176  179  180 1   
   177  179  181 1   
@<TRIPOS>SUBSTRUCTURE
     1 MOL         1 TEMP              0 ****  ****    0 ROOT
