@<TRIPOS>MOLECULE
MOL
  178   175     1     0     0
SMALL
resp


@<TRIPOS>ATOM
      1 C1          2.6360   -2.0800    4.2060 c3        1 MOL     -0.212710
      2 C2          3.7690   -1.3010    3.4580 c         1 MOL      0.604601
      3 O1          3.7240   -1.1560    2.2010 o         1 MOL     -0.523992
      4 H1          2.0480   -1.3830    4.8010 hc        1 MOL      0.048416
      5 H2          1.9900   -2.5700    3.4770 hc        1 MOL      0.048416
      6 H3          3.0810   -2.8310    4.8590 hc        1 MOL      0.048416
      7 N1          4.6640   -0.7630    4.2480 n         1 MOL     -0.401515
      8 C3          5.7600   -0.0290    3.7400 c3        1 MOL     -0.026719
      9 C4          6.7390   -0.7670    2.8030 c         1 MOL      0.632654
     10 O2          7.1270   -0.1730    1.8140 o         1 MOL     -0.512509
     11 C5          6.4970    0.5260    4.9950 c3        1 MOL     -0.154809
     12 C6          7.6110    1.4960    4.6580 c         1 MOL      0.739279
     13 O3          7.3200    2.6740    4.4110 o         1 MOL     -0.730582
     14 O4          8.8040    1.1180    4.7760 o         1 MOL     -0.730582
     15 H4          4.5560   -0.9370    5.2380 hn        1 MOL      0.273501
     16 H5          5.3560    0.7730    3.1330 h1        1 MOL      0.081332
     17 H6          6.8840   -0.3170    5.5700 hc        1 MOL     -0.006869
     18 H7          5.7300    0.9730    5.6230 hc        1 MOL     -0.006869
     19 N2          6.9630   -2.0700    2.9940 n         1 MOL     -0.541578
     20 C7          7.5680   -3.0020    2.1010 c3        1 MOL      0.361878
     21 C8          6.8770   -3.0550    0.7090 c         1 MOL      0.256807
     22 O5          7.5380   -3.3630   -0.2860 o         1 MOL     -0.456654
     23 C9          9.1040   -2.8180    2.0500 c3        1 MOL     -0.433010
     24 H8          6.3810   -2.5130    3.7020 hn        1 MOL      0.247773
     25 H9          7.4870   -3.9860    2.5650 h1        1 MOL      0.017627
     26 H10         9.3150   -1.8220    1.6650 hc        1 MOL      0.111192
     27 H11         9.4540   -2.8420    3.0740 hc        1 MOL      0.111192
     28 H12         9.5520   -3.6060    1.4510 hc        1 MOL      0.111192
     29 N3          5.5780   -2.8410    0.6430 n         1 MOL     -0.452264
     30 C10         4.8100   -2.9600   -0.5910 c3        1 MOL      0.340180
     31 C11         5.1900   -1.9410   -1.7080 c         1 MOL      0.238639
     32 O6          5.5450   -2.3150   -2.8270 o         1 MOL     -0.503841
     33 C12         4.6840   -4.4170   -1.0140 c3        1 MOL     -0.024988
     34 C13         3.5580   -4.7600   -1.9460 c         1 MOL      0.722780
     35 O7          2.5390   -4.0620   -1.8880 o         1 MOL     -0.743284
     36 O8          3.5560   -5.9080   -2.4550 o         1 MOL     -0.743284
     37 H13         5.1760   -2.4650    1.4860 hn        1 MOL      0.201766
     38 H14         3.7680   -2.7070   -0.3990 h1        1 MOL     -0.002578
     39 H15         4.4860   -4.9540   -0.0770 hc        1 MOL     -0.001466
     40 H16         5.5880   -4.8630   -1.4180 hc        1 MOL     -0.001466
     41 N4          5.3680   -0.6720   -1.2530 n         1 MOL      0.039386
     42 C14         5.8800    0.3940   -2.1980 c3        1 MOL     -0.276909
     43 C15         4.8040    1.2200   -2.9220 c         1 MOL      0.596535
     44 O9          5.2300    2.0080   -3.7490 o         1 MOL     -0.565683
     45 H17         5.1000   -0.4710   -0.3040 hn        1 MOL      0.150000
     46 H18         6.4810   -0.1150   -2.9590 h1        1 MOL      0.126748
     47 H19         6.5160    1.0220   -1.5840 h1        1 MOL      0.126748
     48 N5          3.4820    1.0600   -2.7670 n         1 MOL     -0.291321
     49 C16         2.4990    1.9500   -3.3680 c3        1 MOL      0.028458
     50 C17         2.4580    3.3730   -2.8450 c         1 MOL      0.480655
     51 O10         3.0130    3.7690   -1.8070 o         1 MOL     -0.493043
     52 C18         1.1240    1.2170   -3.2530 c3        1 MOL     -0.364125
     53 C19         1.0050   -0.1860   -3.9440 c         1 MOL      0.714200
     54 N6          0.7140   -0.2330   -5.1860 n         1 MOL     -0.703390
     55 O11         1.2840   -1.1840   -3.3070 o         1 MOL     -0.591794
     56 H20         3.2210    0.4180   -2.0370 hn        1 MOL      0.185829
     57 H21         2.7680    2.0390   -4.4180 h1        1 MOL      0.029260
     58 H22         0.3250    1.8790   -3.6090 hc        1 MOL      0.137952
     59 H23         0.8530    1.1050   -2.2010 hc        1 MOL      0.137952
     60 H24         0.3240    0.5350   -5.7220 hn        1 MOL      0.340990
     61 H25         0.8560   -1.1070   -5.6610 hn        1 MOL      0.340990
     62 N7          1.8700    4.2450   -3.6380 n         1 MOL     -0.327838
     63 C20         1.9000    5.7310   -3.4530 c3        1 MOL     -0.213364
     64 C21         0.6370    6.2780   -2.7930 c         1 MOL      0.565505
     65 O12        -0.4970    5.9650   -3.1690 o         1 MOL     -0.512744
     66 H26         1.3320    3.9140   -4.4360 hn        1 MOL      0.264404
     67 H27         2.0920    6.1990   -4.4230 h1        1 MOL      0.125712
     68 H28         2.7840    5.8930   -2.8310 h1        1 MOL      0.125712
     69 N8          0.7600    7.1660   -1.8050 n         1 MOL     -0.515923
     70 C22        -0.3250    7.6550   -0.9990 c3        1 MOL     -0.036745
     71 C23        -1.0900    6.5720   -0.1120 c         1 MOL      0.464381
     72 O13        -2.3120    6.7120    0.1080 o         1 MOL     -0.579690
     73 C24         0.2380    8.7700   -0.0870 c3        1 MOL      0.310869
     74 C25        -0.8640    9.5850    0.7000 c3        1 MOL     -0.306049
     75 O14         1.1690    8.1750    0.7670 oh        1 MOL     -0.619958
     76 H29         1.6420    7.6060   -1.5800 hn        1 MOL      0.303711
     77 H30        -1.1000    8.1150   -1.6200 h1        1 MOL      0.105390
     78 H31         0.7760    9.5060   -0.7010 h1        1 MOL      0.001688
     79 H32         1.2100    8.7430    1.5400 ho        1 MOL      0.408272
     80 H33        -0.5440   10.6250    0.7640 hc        1 MOL      0.077320
     81 H34        -1.7590    9.5040    0.0890 hc        1 MOL      0.077320
     82 H35        -0.9750    9.1330    1.6830 hc        1 MOL      0.077320
     83 N9         -0.4810    5.4520    0.1720 n         1 MOL     -0.017837
     84 C26        -0.9450    4.2010    0.8310 c3        1 MOL     -0.211528
     85 C27        -1.2060    3.1250   -0.2400 c         1 MOL      0.485674
     86 O15        -0.7080    3.0420   -1.3500 o         1 MOL     -0.491189
     87 C28        -0.1910    3.9080    2.0730 c3        1 MOL     -0.023690
     88 C29         1.2230    3.3030    1.8260 c3        1 MOL     -0.228105
     89 C30        -0.1790    5.1140    2.9710 c3        1 MOL     -0.151850
     90 C31         2.0520    3.0760    3.0740 c3        1 MOL     -0.363846
     91 H36         0.4870    5.3870   -0.1020 hn        1 MOL      0.188796
     92 H37        -1.9580    4.4020    1.1970 h1        1 MOL      0.121519
     93 H38        -0.8050    3.2050    2.6500 hc        1 MOL      0.058744
     94 H39         1.7830    3.8850    1.0950 hc        1 MOL      0.164816
     95 H40         1.0840    2.3740    1.2770 hc        1 MOL      0.164816
     96 H41         0.2460    5.0380    3.9740 hc        1 MOL      0.042563
     97 H42         0.3940    5.9480    2.5590 hc        1 MOL      0.042563
     98 H43        -1.2230    5.4360    3.0050 hc        1 MOL      0.042563
     99 H44         1.3200    2.6600    3.7710 hc        1 MOL      0.121177
    100 H45         2.9050    2.4030    2.9480 hc        1 MOL      0.121177
    101 H46         2.4440    4.0320    3.4230 hc        1 MOL      0.121177
    102 N10        -2.1500    2.2680    0.0420 n         1 MOL     -0.427985
    103 C32        -2.3400    0.9580   -0.6180 c3        1 MOL      0.015947
    104 C33        -3.7550    0.3210   -0.3920 c         1 MOL      0.495112
    105 O16        -3.8810   -0.9130   -0.4430 o         1 MOL     -0.555197
    106 C34        -1.2180    0.0290   -0.0820 c3        1 MOL     -0.036228
    107 C35        -0.8320   -1.2350   -0.9450 c         1 MOL      0.382110
    108 O17         0.0920   -1.8840   -0.5020 o         1 MOL     -0.598576
    109 O18        -1.4200   -1.5030   -1.9770 o         1 MOL     -0.598576
    110 H47        -2.6360    2.5000    0.9020 hn        1 MOL      0.245964
    111 H48        -2.3200    1.1140   -1.6960 h1        1 MOL      0.089530
    112 H49        -1.4490   -0.2960    0.9380 hc        1 MOL      0.033045
    113 H50        -0.2870    0.5970   -0.1400 hc        1 MOL      0.033045
    114 N11        -4.7520    1.0800    0.0160 n         1 MOL     -0.344297
    115 C36        -6.1110    0.5630    0.1850 c3        1 MOL      0.097126
    116 C37        -6.3120   -0.6220    1.1170 c         1 MOL      0.285196
    117 O19        -6.0250   -0.5130    2.3400 o         1 MOL     -0.497899
    118 C38        -7.0320    1.6840    0.6260 c3        1 MOL     -0.345612
    119 C39        -8.5080    1.2930    0.5160 ca        1 MOL      0.079901
    120 C40        -9.1170    1.1180   -0.7460 ca        1 MOL     -0.142321
    121 C41        -9.1700    0.9290    1.7100 ca        1 MOL     -0.142321
    122 C42       -10.5350    0.8270   -0.7690 ca        1 MOL     -0.138439
    123 C43       -10.5120    0.5050    1.6720 ca        1 MOL     -0.138439
    124 C44       -11.2010    0.4770    0.4210 ca        1 MOL     -0.108151
    125 H51        -4.6680    2.0830    0.0800 hn        1 MOL      0.241864
    126 H52        -6.3890    0.3420   -0.8490 h1        1 MOL      0.060314
    127 H53        -6.7850    2.4370   -0.1200 hc        1 MOL      0.135951
    128 H54        -6.8300    1.9750    1.6560 hc        1 MOL      0.135951
    129 H55        -8.5250    1.2470   -1.6380 ha        1 MOL      0.137835
    130 H56        -8.6320    1.0060    2.6420 ha        1 MOL      0.137835
    131 H57       -11.1040    0.6670   -1.6680 ha        1 MOL      0.116780
    132 H58       -11.0550    0.2940    2.5750 ha        1 MOL      0.116780
    133 H59       -12.2430    0.1800    0.4520 ha        1 MOL      0.106499
    134 N12        -6.7440   -1.7860    0.6170 n         1 MOL      0.076700
    135 C45        -7.1260   -2.9170    1.5290 c3        1 MOL      0.026834
    136 C46        -5.8850   -3.4550    2.2870 c         1 MOL      0.262805
    137 O20        -5.8870   -3.7820    3.4460 o         1 MOL     -0.488874
    138 C47        -7.9080   -3.9320    0.6760 c3        1 MOL      0.065104
    139 C48        -8.4180   -3.0430   -0.4690 c3        1 MOL     -0.144029
    140 C49        -7.1770   -2.1580   -0.6890 c3        1 MOL      0.138375
    141 H60        -7.8720   -2.5130    2.2080 h1        1 MOL      0.056929
    142 H61        -7.2490   -4.6840    0.2380 hc        1 MOL      0.008249
    143 H62        -8.6840   -4.5020    1.1930 hc        1 MOL      0.008249
    144 H63        -8.5840   -3.5610   -1.4150 hc        1 MOL      0.027420
    145 H64        -9.2840   -2.4360   -0.2170 hc        1 MOL      0.027420
    146 H65        -6.4320   -2.7180   -1.2640 h1        1 MOL     -0.012751
    147 H66        -7.5270   -1.2890   -1.2550 h1        1 MOL     -0.012751
    148 N13        -4.6900   -3.4270    1.7110 n         1 MOL     -0.162608
    149 C50        -3.3990   -3.7240    2.3890 c3        1 MOL     -0.241584
    150 C51        -3.0880   -2.7380    3.5080 c         1 MOL      0.506116
    151 O21        -2.6050   -3.2980    4.4860 o         1 MOL     -0.556076
    152 C52        -2.3560   -3.7050    1.2990 c3        1 MOL     -0.035698
    153 C53        -2.6080   -4.9400    0.3730 c3        1 MOL      0.087137
    154 C54        -1.6980   -4.8510   -0.8610 c         1 MOL      0.594529
    155 O22        -2.2170   -4.6730   -1.9750 o         1 MOL     -0.734343
    156 O23        -0.4530   -4.7270   -0.6860 o         1 MOL     -0.734343
    157 H67        -4.5630   -3.2300    0.7310 hn        1 MOL      0.241842
    158 H68        -3.4970   -4.7420    2.7860 h1        1 MOL      0.148063
    159 H69        -1.3410   -3.6920    1.7050 hc        1 MOL      0.116578
    160 H70        -2.4730   -2.7960    0.7200 hc        1 MOL      0.116578
    161 H71        -3.6270   -4.9470   -0.0010 hc        1 MOL     -0.057851
    162 H72        -2.4620   -5.8350    0.9810 hc        1 MOL     -0.057851
    163 N14        -3.4010   -1.4560    3.3940 n         1 MOL     -0.159702
    164 C55        -3.1940   -0.4180    4.4930 c3        1 MOL     -0.316964
    165 H73        -3.4800   -0.8450    5.4540 h1        1 MOL      0.120049
    166 H74        -2.1430   -0.1250    4.5240 h1        1 MOL      0.120049
    167 H75        -3.8090    0.4580    4.2880 h1        1 MOL      0.120049
    168 H76        -4.0500   -1.2330    2.6660 hn        1 MOL      0.232507
    169 Ca1         0.2110   -3.4300   -2.8220 Ca        1 MOL      1.736728
    170 O24         0.8420   -5.9730   -3.1780 oh        1 MOL     -0.888611
    171 H77         1.0550   -6.8150   -3.5890 ho        1 MOL      0.425311
    172 H78         1.5340   -5.8380   -2.5310 ho        1 MOL      0.425311
    173 O25        -1.3250   -2.6980   -5.2500 oh        1 MOL     -0.888611
    174 H79        -2.2290   -2.4450   -5.0440 ho        1 MOL      0.425311
    175 H80        -1.4030   -3.2210   -6.0480 ho        1 MOL      0.425311
    176 O26         1.6810   -3.7340   -4.8500 oh        1 MOL     -0.888611
    177 H81         2.3590   -4.4030   -4.9300 ho        1 MOL      0.425311
    178 H82         1.7360   -3.2550   -5.6810 ho        1 MOL      0.425311
@<TRIPOS>BOND
     1    1    2 1   
     2    1    4 1   
     3    1    5 1   
     4    1    6 1   
     5    2    3 2   
     6    2    7 1   
     7    7    8 1   
     8    7   15 1   
     9    8    9 1   
    10    8   11 1   
    11    8   16 1   
    12    9   10 2   
    13    9   19 1   
    14   11   12 1   
    15   11   17 1   
    16   11   18 1   
    17   12   13 1   
    18   12   14 1   
    19   19   20 1   
    20   19   24 1   
    21   20   21 1   
    22   20   23 1   
    23   20   25 1   
    24   21   22 2   
    25   21   29 1   
    26   23   26 1   
    27   23   27 1   
    28   23   28 1   
    29   29   30 1   
    30   29   37 1   
    31   30   31 1   
    32   30   33 1   
    33   30   38 1   
    34   31   32 2   
    35   31   41 1   
    36   33   34 1   
    37   33   39 1   
    38   33   40 1   
    39   34   35 1   
    40   34   36 1   
    41   41   42 1   
    42   41   45 1   
    43   42   43 1   
    44   42   46 1   
    45   42   47 1   
    46   43   44 2   
    47   43   48 1   
    48   48   49 1   
    49   48   56 1   
    50   49   50 1   
    51   49   52 1   
    52   49   57 1   
    53   50   51 2   
    54   50   62 1   
    55   52   53 1   
    56   52   58 1   
    57   52   59 1   
    58   53   54 1   
    59   53   55 2   
    60   54   60 1   
    61   54   61 1   
    62   62   63 1   
    63   62   66 1   
    64   63   64 1   
    65   63   67 1   
    66   63   68 1   
    67   64   65 2   
    68   64   69 1   
    69   69   70 1   
    70   69   76 1   
    71   70   71 1   
    72   70   73 1   
    73   70   77 1   
    74   71   72 2   
    75   71   83 1   
    76   73   74 1   
    77   73   75 1   
    78   73   78 1   
    79   74   80 1   
    80   74   81 1   
    81   74   82 1   
    82   75   79 1   
    83   83   84 1   
    84   83   91 1   
    85   84   85 1   
    86   84   87 1   
    87   84   92 1   
    88   85   86 2   
    89   85  102 1   
    90   87   88 1   
    91   87   89 1   
    92   87   93 1   
    93   88   90 1   
    94   88   94 1   
    95   88   95 1   
    96   89   96 1   
    97   89   97 1   
    98   89   98 1   
    99   90   99 1   
   100   90  100 1   
   101   90  101 1   
   102  102  103 1   
   103  102  110 1   
   104  103  104 1   
   105  103  106 1   
   106  103  111 1   
   107  104  105 2   
   108  104  114 1   
   109  106  107 1   
   110  106  112 1   
   111  106  113 1   
   112  107  108 1   
   113  107  109 1   
   114  114  115 1   
   115  114  125 1   
   116  115  116 1   
   117  115  118 1   
   118  115  126 1   
   119  116  117 2   
   120  116  134 1   
   121  118  119 1   
   122  118  127 1   
   123  118  128 1   
   124  119  120 ar  
   125  119  121 ar  
   126  120  122 ar  
   127  120  129 1   
   128  121  123 ar  
   129  121  130 1   
   130  122  124 ar  
   131  122  131 1   
   132  123  124 ar  
   133  123  132 1   
   134  124  133 1   
   135  134  135 1   
   136  134  140 1   
   137  135  136 1   
   138  135  138 1   
   139  135  141 1   
   140  136  137 2   
   141  136  148 1   
   142  138  139 1   
   143  138  142 1   
   144  138  143 1   
   145  139  140 1   
   146  139  144 1   
   147  139  145 1   
   148  140  146 1   
   149  140  147 1   
   150  148  149 1   
   151  148  157 1   
   152  149  150 1   
   153  149  152 1   
   154  149  158 1   
   155  150  151 2   
   156  150  163 1   
   157  152  153 1   
   158  152  159 1   
   159  152  160 1   
   160  153  154 1   
   161  153  161 1   
   162  153  162 1   
   163  154  155 1   
   164  154  156 1   
   165  163  164 1   
   166  163  168 1   
   167  164  165 1   
   168  164  166 1   
   169  164  167 1   
   170  170  171 1   
   171  170  172 1   
   172  173  174 1   
   173  173  175 1   
   174  176  177 1   
   175  176  178 1   
@<TRIPOS>SUBSTRUCTURE
     1 MOL         1 TEMP              0 ****  ****    0 ROOT
