@<TRIPOS>MOLECULE
MOL
  181   177     1     0     0
SMALL
resp


@<TRIPOS>ATOM
      1 C1         10.1750   -5.9810   -0.0970 c3        1 MOL     -0.180941
      2 C2          9.3280   -4.8570   -0.6800 c         1 MOL      0.574059
      3 O1          8.3630   -5.1230   -1.3770 o         1 MOL     -0.574907
      4 H1         11.1710   -5.9510   -0.5400 hc        1 MOL      0.044588
      5 H2         10.2530   -5.8560    0.9830 hc        1 MOL      0.044588
      6 H3          9.7090   -6.9410   -0.3190 hc        1 MOL      0.044588
      7 N1          9.4820   -3.6290   -0.2650 n         1 MOL     -0.364407
      8 C3         10.5570   -3.1200    0.5780 c3        1 MOL     -0.011888
      9 C4         11.0200   -1.7000    0.0830 c         1 MOL      0.651064
     10 O2         10.7250   -1.3770   -1.0130 o         1 MOL     -0.505035
     11 C5          9.9270   -3.0380    1.9860 c3        1 MOL     -0.054628
     12 C6          8.7330   -2.0720    2.1190 c         1 MOL      0.712898
     13 O3          7.5580   -2.4300    1.8690 o         1 MOL     -0.752541
     14 O4          8.9330   -0.8510    2.3720 o         1 MOL     -0.752541
     15 H4          8.8400   -3.0050   -0.7340 hn        1 MOL      0.323285
     16 H5         11.4840   -3.7040    0.6580 h1        1 MOL      0.059564
     17 H6         10.7210   -2.6140    2.5980 hc        1 MOL     -0.020342
     18 H7          9.7110   -4.0770    2.2340 hc        1 MOL     -0.020342
     19 N2         11.8400   -0.8940    0.8680 n         1 MOL     -0.759471
     20 C7         12.4130    0.3930    0.5980 c3        1 MOL      0.463194
     21 C8         11.3630    1.4150    0.1070 c         1 MOL      0.383632
     22 O5         11.7890    2.4220   -0.3620 o         1 MOL     -0.545769
     23 C9         13.6930    0.1340   -0.2610 c3        1 MOL     -0.423425
     24 H8         12.2330   -1.3580    1.6730 hn        1 MOL      0.353221
     25 H9         12.8390    0.8130    1.5080 h1        1 MOL     -0.010625
     26 H10        14.0980    1.1320   -0.3780 hc        1 MOL      0.105907
     27 H11        14.3100   -0.5720    0.2960 hc        1 MOL      0.105907
     28 H12        13.4010   -0.3660   -1.1900 hc        1 MOL      0.105907
     29 N3         10.0500    1.2970    0.2580 n         1 MOL     -0.278685
     30 C10         9.0330    2.2030   -0.3130 c3        1 MOL      0.376264
     31 C11         8.0770    2.7080    0.7190 c         1 MOL      0.194052
     32 O6          7.9000    2.1910    1.8140 o         1 MOL     -0.529034
     33 C12         8.4010    1.7050   -1.5920 c3        1 MOL     -0.257007
     34 C13         7.5010    0.4020   -1.3590 c         1 MOL      0.774953
     35 O7          7.4640   -0.4280   -2.2920 o         1 MOL     -0.705630
     36 O8          6.8750    0.2750   -0.2810 o         1 MOL     -0.705630
     37 H13         9.6600    0.4700    0.6980 hn        1 MOL      0.134435
     38 H14         9.6000    3.0640   -0.6700 h1        1 MOL     -0.034513
     39 H15         9.2140    1.3720   -2.2430 hc        1 MOL      0.055292
     40 H16         7.7420    2.4420   -2.0410 hc        1 MOL      0.055292
     41 N4          7.4390    3.8780    0.4950 n         1 MOL     -0.055137
     42 C14         6.3750    4.4530    1.2870 c3        1 MOL     -0.631258
     43 C15         5.0870    3.6950    1.1760 c         1 MOL      0.706078
     44 O9          4.9920    2.5320    1.6240 o         1 MOL     -0.656663
     45 H17         7.7440    4.4030   -0.3120 hn        1 MOL      0.228057
     46 H18         6.1540    5.4470    0.8990 h1        1 MOL      0.221686
     47 H19         6.7140    4.4030    2.3200 h1        1 MOL      0.221686
     48 N5          4.0630    4.3570    0.7090 n         1 MOL     -0.409724
     49 C16         2.8180    3.6740    0.4100 c3        1 MOL      0.138434
     50 C17         2.8890    2.8270   -0.9070 c         1 MOL      0.338675
     51 O10         3.6030    3.1590   -1.8470 o         1 MOL     -0.435714
     52 C18         1.7610    4.8060    0.4910 c3        1 MOL     -0.287141
     53 C19         1.9610    5.6570   -0.7470 c         1 MOL      0.550264
     54 N6          0.9980    5.6820   -1.6550 n         1 MOL     -0.610697
     55 O11         2.9800    6.3510   -0.9110 o         1 MOL     -0.550851
     56 H20         4.3030    5.3060    0.4680 hn        1 MOL      0.285416
     57 H21         2.5650    2.9790    1.2120 h1        1 MOL      0.065975
     58 H22         1.9450    5.3150    1.4380 hc        1 MOL      0.119834
     59 H23         0.7910    4.3230    0.4260 hc        1 MOL      0.119834
     60 H24         0.0200    5.4850   -1.4760 hn        1 MOL      0.331034
     61 H25         1.1470    6.2790   -2.4470 hn        1 MOL      0.331034
     62 N7          2.0510    1.7790   -0.9710 n         1 MOL     -0.393455
     63 C20         1.7640    0.9470   -2.1720 c3        1 MOL      0.041164
     64 C21         1.7470   -0.5180   -1.7600 c         1 MOL      0.604289
     65 O12         2.2150   -0.9050   -0.7110 o         1 MOL     -0.596736
     66 H26         1.5130    1.5010   -0.1580 hn        1 MOL      0.289141
     67 H27         2.5760    1.0530   -2.8860 h1        1 MOL      0.093466
     68 H28         0.8000    1.3020   -2.5400 h1        1 MOL      0.093466
     69 N8          1.2220   -1.4240   -2.5990 n         1 MOL     -0.419699
     70 C22         0.5910   -1.2890   -3.9390 c3        1 MOL     -0.217536
     71 C23        -0.9390   -0.9660   -3.8390 c         1 MOL      0.532236
     72 O13        -1.4950   -0.3930   -4.7470 o         1 MOL     -0.564844
     73 C24         0.8590   -2.4800   -4.7470 c3        1 MOL      0.374649
     74 C25         2.2380   -2.4500   -5.3270 c3        1 MOL     -0.355699
     75 O14         0.5800   -3.6180   -4.0460 oh        1 MOL     -0.623942
     76 H29         1.0810   -2.3440   -2.2190 hn        1 MOL      0.318088
     77 H30         1.1380   -0.4320   -4.3460 h1        1 MOL      0.109945
     78 H31         0.1330   -2.5010   -5.5640 h1        1 MOL      0.005639
     79 H32         0.6490   -4.4090   -4.5910 ho        1 MOL      0.418616
     80 H33         2.4600   -3.3500   -5.9030 hc        1 MOL      0.097429
     81 H34         2.4520   -1.5930   -5.9690 hc        1 MOL      0.097429
     82 H35         2.8820   -2.5380   -4.4560 hc        1 MOL      0.097429
     83 N9         -1.5860   -1.2790   -2.7280 n         1 MOL     -0.221744
     84 C26        -3.0270   -1.1090   -2.3700 c3        1 MOL      0.011532
     85 C27        -3.1680   -0.4550   -0.9620 c         1 MOL      0.408097
     86 O15        -2.3210   -0.6570   -0.1440 o         1 MOL     -0.532235
     87 C28        -3.8390   -2.4500   -2.5940 c3        1 MOL      0.071201
     88 C29        -3.2420   -3.5000   -1.6370 c3        1 MOL     -0.140285
     89 C30        -3.7040   -2.9940   -4.0590 c3        1 MOL     -0.243594
     90 C31        -4.2630   -4.6750   -1.3770 c3        1 MOL     -0.099816
     91 H36        -1.0210   -1.6500   -1.9810 hn        1 MOL      0.176805
     92 H37        -3.4690   -0.3780   -3.0590 h1        1 MOL      0.090593
     93 H38        -4.9000   -2.2920   -2.3900 hc        1 MOL      0.084587
     94 H39        -2.9310   -3.1460   -0.6520 hc        1 MOL      0.064623
     95 H40        -2.2960   -3.8830   -2.0440 hc        1 MOL      0.064623
     96 H41        -4.2250   -3.9590   -4.1270 hc        1 MOL      0.056955
     97 H42        -4.3030   -2.3780   -4.7240 hc        1 MOL      0.056955
     98 H43        -2.6550   -3.1710   -4.2660 hc        1 MOL      0.056955
     99 H44        -4.5910   -5.2550   -2.2460 hc        1 MOL      0.019442
    100 H45        -3.7380   -5.3970   -0.7570 hc        1 MOL      0.019442
    101 H46        -5.1180   -4.3270   -0.8100 hc        1 MOL      0.019442
    102 N10        -4.1640    0.3520   -0.6350 n         1 MOL     -0.351813
    103 C32        -5.2380    0.8640   -1.4860 c3        1 MOL      0.020674
    104 C33        -6.5070    1.0590   -0.6310 c         1 MOL      0.613671
    105 O16        -6.4810    1.6870    0.4450 o         1 MOL     -0.521852
    106 C34        -4.8700    2.1920   -2.2400 c3        1 MOL     -0.158825
    107 C35        -4.4970    3.4380   -1.4910 c         1 MOL      0.770233
    108 O17        -3.8670    3.3800   -0.4040 o         1 MOL     -0.742996
    109 O18        -4.8020    4.4880   -2.0110 o         1 MOL     -0.742996
    110 H47        -4.0410    0.8610    0.2310 hn        1 MOL      0.312369
    111 H48        -5.4630    0.0370   -2.1760 h1        1 MOL     -0.013500
    112 H49        -5.7540    2.4320   -2.8400 hc        1 MOL      0.013298
    113 H50        -4.0730    1.9880   -2.9520 hc        1 MOL      0.013298
    114 N11        -7.6910    0.7270   -1.1500 n         1 MOL     -0.594743
    115 C36        -8.9890    1.0460   -0.4600 c3        1 MOL      0.546280
    116 C37       -10.0120    0.0450   -0.8360 c         1 MOL      0.159959
    117 O19       -10.1120   -0.1350   -2.0910 o         1 MOL     -0.541167
    118 C38        -9.4690    2.4100   -0.9430 c3        1 MOL     -0.399806
    119 C39       -10.8240    2.8240   -0.3440 ca        1 MOL      0.210662
    120 C40       -12.0370    2.6140   -0.9800 ca        1 MOL     -0.253669
    121 C41       -10.8490    3.3400    0.9760 ca        1 MOL     -0.253669
    122 C42       -13.2360    2.8590   -0.3050 ca        1 MOL     -0.029872
    123 C43       -12.0220    3.7560    1.6470 ca        1 MOL     -0.029872
    124 C44       -13.2310    3.4130    0.9690 ca        1 MOL     -0.217452
    125 H51        -7.7020    0.0960   -1.9310 hn        1 MOL      0.307972
    126 H52        -8.8940    0.9820    0.6250 h1        1 MOL     -0.076530
    127 H53        -9.4950    2.4130   -2.0340 hc        1 MOL      0.135439
    128 H54        -8.7660    3.1080   -0.4950 hc        1 MOL      0.135439
    129 H55       -12.0290    2.2050   -1.9820 ha        1 MOL      0.141789
    130 H56        -9.8910    3.6360    1.3760 ha        1 MOL      0.141789
    131 H57       -14.1530    2.6510   -0.8240 ha        1 MOL      0.094969
    132 H58       -12.0980    4.2880    2.5820 ha        1 MOL      0.094969
    133 H59       -14.1840    3.5710    1.4570 ha        1 MOL      0.104206
    134 N12       -10.7640   -0.5480    0.0610 n         1 MOL      0.201275
    135 C45       -10.7140   -0.3680    1.5540 c3        1 MOL     -0.148570
    136 C46        -9.6020   -1.1350    2.2250 c         1 MOL      0.504817
    137 O20        -9.5820   -1.1320    3.4440 o         1 MOL     -0.512804
    138 C47       -12.1530   -0.8540    1.9090 c3        1 MOL     -0.014237
    139 C48       -12.4790   -1.9090    0.9380 c3        1 MOL      0.029763
    140 C49       -11.9690   -1.2190   -0.3710 c3        1 MOL     -0.151077
    141 H60       -10.6290    0.6900    1.8030 h1        1 MOL      0.118242
    142 H61       -12.1990   -1.2200    2.9360 hc        1 MOL      0.013997
    143 H62       -12.8090   -0.0070    1.7060 hc        1 MOL      0.013997
    144 H63       -11.9010   -2.8120    1.1290 hc        1 MOL      0.008539
    145 H64       -13.5420   -2.1300    0.9130 hc        1 MOL      0.008539
    146 H65       -11.8220   -1.8320   -1.2530 h1        1 MOL      0.054732
    147 H66       -12.7000   -0.4660   -0.6720 h1        1 MOL      0.054732
    148 N13        -8.7740   -1.7330    1.4210 n         1 MOL     -0.337019
    149 C50        -7.7270   -2.6470    1.9360 c3        1 MOL      0.209558
    150 C51        -7.5600   -3.8490    0.9310 c         1 MOL      0.321430
    151 O21        -7.8750   -3.7310   -0.2760 o         1 MOL     -0.535465
    152 C52        -6.4010   -1.8830    2.0070 c3        1 MOL      0.038224
    153 C53        -6.2820   -0.7370    3.0230 c3        1 MOL     -0.204800
    154 C54        -6.1180   -1.2470    4.4790 c         1 MOL      0.767139
    155 O22        -6.7780   -2.1680    4.9940 o         1 MOL     -0.743900
    156 O23        -5.2220   -0.6370    5.1300 o         1 MOL     -0.743900
    157 H67        -8.9420   -1.7260    0.4220 hn        1 MOL      0.178259
    158 H68        -7.9050   -3.0130    2.9430 h1        1 MOL      0.038428
    159 H69        -6.1650   -1.5610    0.9900 hc        1 MOL     -0.002207
    160 H70        -5.6160   -2.5460    2.3570 hc        1 MOL     -0.002207
    161 H71        -7.2140   -0.1820    3.0260 hc        1 MOL      0.030636
    162 H72        -5.4870   -0.0490    2.7280 hc        1 MOL      0.030636
    163 N14        -7.2700   -5.0680    1.4360 n         1 MOL     -0.335316
    164 C55        -6.9600   -5.4530    2.8530 c3        1 MOL     -0.078778
    165 H73        -7.8880   -5.6710    3.3810 h1        1 MOL      0.069367
    166 H74        -6.3230   -6.3370    2.8590 h1        1 MOL      0.069367
    167 H75        -6.4470   -4.6300    3.3490 h1        1 MOL      0.069367
    168 H76        -7.2590   -5.7990    0.7380 hn        1 MOL      0.265495
    169 Ca1         6.4510    0.1410    2.3100 Ca        1 MOL      1.774410
    170 O24         3.5800   -0.1180    3.1300 oh        1 MOL     -0.829395
    171 H77         2.8920    0.5380    3.2120 ho        1 MOL      0.413482
    172 H78         3.1290   -0.8960    2.7890 ho        1 MOL      0.413482
    173 O25         6.3990    1.7890    4.4940 oh        1 MOL     -0.829395
    174 H79         6.1190    2.7070    4.5700 ho        1 MOL      0.413482
    175 H80         6.3100    1.4500    5.3850 ho        1 MOL      0.413482
    176 O26         4.6600   -1.0590    0.6940 oh        1 MOL     -0.829395
    177 H81         3.8780   -0.7050    0.2750 ho        1 MOL      0.413482
    178 H82         5.1870   -1.3880   -0.0350 ho        1 MOL      0.413482
    179 O27         6.4900   -1.4270    4.5510 oh        1 MOL     -0.829395
    180 H83         7.0380   -2.2000    4.4500 ho        1 MOL      0.413482
    181 H84         5.8860   -1.6530    5.2530 ho        1 MOL      0.413482
@<TRIPOS>BOND
     1    1    2 1   
     2    1    4 1   
     3    1    5 1   
     4    1    6 1   
     5    2    3 2   
     6    2    7 1   
     7    7    8 1   
     8    7   15 1   
     9    8    9 1   
    10    8   11 1   
    11    8   16 1   
    12    9   10 2   
    13    9   19 1   
    14   11   12 1   
    15   11   17 1   
    16   11   18 1   
    17   12   13 1   
    18   12   14 1   
    19   19   20 1   
    20   19   24 1   
    21   20   21 1   
    22   20   23 1   
    23   20   25 1   
    24   21   22 2   
    25   21   29 1   
    26   23   26 1   
    27   23   27 1   
    28   23   28 1   
    29   29   30 1   
    30   29   37 1   
    31   30   31 1   
    32   30   33 1   
    33   30   38 1   
    34   31   32 2   
    35   31   41 1   
    36   33   34 1   
    37   33   39 1   
    38   33   40 1   
    39   34   35 1   
    40   34   36 1   
    41   41   42 1   
    42   41   45 1   
    43   42   43 1   
    44   42   46 1   
    45   42   47 1   
    46   43   44 2   
    47   43   48 1   
    48   48   49 1   
    49   48   56 1   
    50   49   50 1   
    51   49   52 1   
    52   49   57 1   
    53   50   51 2   
    54   50   62 1   
    55   52   53 1   
    56   52   58 1   
    57   52   59 1   
    58   53   54 1   
    59   53   55 2   
    60   54   60 1   
    61   54   61 1   
    62   62   63 1   
    63   62   66 1   
    64   63   64 1   
    65   63   67 1   
    66   63   68 1   
    67   64   65 2   
    68   64   69 1   
    69   69   70 1   
    70   69   76 1   
    71   70   71 1   
    72   70   73 1   
    73   70   77 1   
    74   71   72 2   
    75   71   83 1   
    76   73   74 1   
    77   73   75 1   
    78   73   78 1   
    79   74   80 1   
    80   74   81 1   
    81   74   82 1   
    82   75   79 1   
    83   83   84 1   
    84   83   91 1   
    85   84   85 1   
    86   84   87 1   
    87   84   92 1   
    88   85   86 2   
    89   85  102 1   
    90   87   88 1   
    91   87   89 1   
    92   87   93 1   
    93   88   90 1   
    94   88   94 1   
    95   88   95 1   
    96   89   96 1   
    97   89   97 1   
    98   89   98 1   
    99   90   99 1   
   100   90  100 1   
   101   90  101 1   
   102  102  103 1   
   103  102  110 1   
   104  103  104 1   
   105  103  106 1   
   106  103  111 1   
   107  104  105 2   
   108  104  114 1   
   109  106  107 1   
   110  106  112 1   
   111  106  113 1   
   112  107  108 1   
   113  107  109 1   
   114  114  115 1   
   115  114  125 1   
   116  115  116 1   
   117  115  118 1   
   118  115  126 1   
   119  116  117 2   
   120  116  134 1   
   121  118  119 1   
   122  118  127 1   
   123  118  128 1   
   124  119  120 ar  
   125  119  121 ar  
   126  120  122 ar  
   127  120  129 1   
   128  121  123 ar  
   129  121  130 1   
   130  122  124 ar  
   131  122  131 1   
   132  123  124 ar  
   133  123  132 1   
   134  124  133 1   
   135  134  135 1   
   136  134  140 1   
   137  135  136 1   
   138  135  138 1   
   139  135  141 1   
   140  136  137 2   
   141  136  148 1   
   142  138  139 1   
   143  138  142 1   
   144  138  143 1   
   145  139  140 1   
   146  139  144 1   
   147  139  145 1   
   148  140  146 1   
   149  140  147 1   
   150  148  149 1   
   151  148  157 1   
   152  149  150 1   
   153  149  152 1   
   154  149  158 1   
   155  150  151 2   
   156  150  163 1   
   157  152  153 1   
   158  152  159 1   
   159  152  160 1   
   160  153  154 1   
   161  153  161 1   
   162  153  162 1   
   163  154  155 1   
   164  154  156 1   
   165  163  164 1   
   166  163  168 1   
   167  164  165 1   
   168  164  166 1   
   169  164  167 1   
   170  170  171 1   
   171  170  172 1   
   172  173  174 1   
   173  173  175 1   
   174  176  177 1   
   175  176  178 1   
   176  179  180 1   
   177  179  181 1   
@<TRIPOS>SUBSTRUCTURE
     1 MOL         1 TEMP              0 ****  ****    0 ROOT
