@<TRIPOS>MOLECULE
MOL
  188   182     1     0     0
SMALL
resp


@<TRIPOS>ATOM
      1 C1          6.7040    3.0680   -1.4300 c3        1 MOL     -0.308746
      2 C2          7.2860    1.6590   -1.7080 c         1 MOL      0.774257
      3 O1          6.5680    0.6830   -1.9360 o         1 MOL     -0.539596
      4 H1          5.6280    2.9930   -1.2770 hc        1 MOL      0.077790
      5 H2          7.1690    3.4840   -0.5360 hc        1 MOL      0.077790
      6 H3          6.9050    3.7190   -2.2810 hc        1 MOL      0.077790
      7 N1          8.6190    1.5360   -1.6940 n         1 MOL     -0.655522
      8 C3          9.3600    0.2430   -1.5570 c3        1 MOL     -0.073088
      9 C4          9.0060   -0.7550   -0.4790 c         1 MOL      0.659481
     10 O2          9.7540   -1.6730   -0.3000 o         1 MOL     -0.560664
     11 C5          9.3020   -0.5670   -2.8540 c3        1 MOL     -0.130777
     12 C6          9.6580    0.2140   -4.1440 c         1 MOL      0.733904
     13 O3          8.8920    0.1010   -5.1360 o         1 MOL     -0.669333
     14 O4         10.7760    0.7650   -4.2200 o         1 MOL     -0.669333
     15 H4          9.2490    2.3340   -1.6720 hn        1 MOL      0.346040
     16 H5         10.4250    0.3880   -1.3750 h1        1 MOL      0.089249
     17 H6          8.3300   -1.0480   -2.9450 hc        1 MOL      0.048722
     18 H7         10.0940   -1.3190   -2.8070 hc        1 MOL      0.048722
     19 N2          7.9580   -0.4920    0.3540 n         1 MOL     -0.540314
     20 C7          7.6430   -1.2620    1.5840 c3        1 MOL      0.137725
     21 C8          6.1990   -1.5050    1.8310 c         1 MOL      0.479027
     22 O5          5.8170   -2.1450    2.7830 o         1 MOL     -0.570018
     23 C9          8.3340   -0.7680    2.8810 c3        1 MOL     -0.243213
     24 C10         9.8330   -0.9330    2.8210 c3        1 MOL      0.172943
     25 C11        10.4190   -0.7220    4.2360 c3        1 MOL     -0.050717
     26 C12        12.0030   -0.5580    4.2770 c3        1 MOL     -0.045955
     27 N3         12.6990   -1.6640    3.6110 n4        1 MOL     -0.172892
     28 H8          7.4900    0.3940    0.2380 hn        1 MOL      0.260712
     29 H9          8.0300   -2.2610    1.3600 h1        1 MOL      0.087437
     30 H10         7.9490   -1.3950    3.6830 hc        1 MOL      0.077223
     31 H11         8.0470    0.2650    3.0950 hc        1 MOL      0.077223
     32 H12        10.2420   -0.2610    2.0730 hc        1 MOL     -0.018325
     33 H13        10.1170   -1.9460    2.5530 hc        1 MOL     -0.018325
     34 H14        10.1090   -1.5320    4.8970 hc        1 MOL      0.037469
     35 H15         9.9380    0.1160    4.7430 hc        1 MOL      0.037469
     36 H16        12.2280   -0.6940    5.3280 hx        1 MOL      0.085253
     37 H17        12.3290    0.4570    4.0580 hx        1 MOL      0.085253
     38 H18        12.1850   -2.4940    3.8630 hn        1 MOL      0.243256
     39 H19        12.5920   -1.5620    2.6140 hn        1 MOL      0.243256
     40 H20        13.6610   -1.8470    3.8290 hn        1 MOL      0.243256
     41 N4          5.3030   -0.9700    0.9590 n         1 MOL     -0.232239
     42 C13         3.8210   -1.1780    1.0060 c3        1 MOL     -0.059584
     43 C14         3.4170   -2.0270   -0.2760 c         1 MOL      0.544766
     44 O6          3.8310   -1.7180   -1.3540 o         1 MOL     -0.471644
     45 C15         3.0350    0.1290    1.0940 c3        1 MOL     -0.085453
     46 C16         1.5810   -0.1080    1.2260 c         1 MOL      0.971435
     47 O7          0.9190   -0.5320    0.2510 o         1 MOL     -0.875618
     48 O8          1.0080    0.0200    2.3110 o         1 MOL     -0.875618
     49 H21         5.6790   -0.2870    0.3210 hn        1 MOL      0.164206
     50 H22         3.5280   -1.7990    1.8610 h1        1 MOL      0.062925
     51 H23         3.1690    0.6740    0.1610 hc        1 MOL      0.014928
     52 H24         3.4560    0.8200    1.8350 hc        1 MOL      0.014928
     53 N5          2.7010   -3.1140   -0.1180 n         1 MOL     -0.477675
     54 C17         2.4480   -4.0910   -1.1330 c3        1 MOL     -0.026729
     55 C18         1.4520   -3.6400   -2.2180 c         1 MOL      0.457026
     56 O9          1.2190   -4.3420   -3.2270 o         1 MOL     -0.494052
     57 H25         2.3040   -3.3090    0.7870 hn        1 MOL      0.304582
     58 H26         2.0940   -5.0470   -0.7680 h1        1 MOL      0.092844
     59 H27         3.3720   -4.3780   -1.6350 h1        1 MOL      0.092844
     60 N6          0.7630   -2.5010   -2.0270 n         1 MOL     -0.410192
     61 C19        -0.2980   -2.0140   -2.9110 c3        1 MOL      0.080852
     62 C20        -0.1470   -0.4870   -2.9900 c         1 MOL      0.410628
     63 O10        -1.0730    0.2420   -3.2280 o         1 MOL     -0.505473
     64 C21        -1.6570   -2.5400   -2.5750 c3        1 MOL     -0.056883
     65 C22        -2.4570   -1.6770   -1.6170 c         1 MOL      0.265185
     66 N7         -3.6440   -1.2020   -2.0090 n         1 MOL     -0.527155
     67 O11        -2.0380   -1.5040   -0.5290 o         1 MOL     -0.500983
     68 H28         1.0420   -1.8540   -1.3170 hn        1 MOL      0.382672
     69 H29        -0.0450   -2.4230   -3.8890 h1        1 MOL      0.092363
     70 H30        -1.5590   -3.6190   -2.4210 hc        1 MOL      0.062842
     71 H31        -2.1770   -2.4160   -3.5310 hc        1 MOL      0.062842
     72 H32        -3.9210   -1.3970   -2.9640 hn        1 MOL      0.312200
     73 H33        -4.1980   -0.5640   -1.4530 hn        1 MOL      0.312200
     74 N8          1.0300   -0.0030   -2.7930 n         1 MOL     -0.167387
     75 C23         1.4810    1.2900   -3.0670 c3        1 MOL     -0.133680
     76 C24         0.8050    2.4470   -2.2830 c         1 MOL      0.509546
     77 O12         0.5310    3.5290   -2.8470 o         1 MOL     -0.546359
     78 H34         1.7540   -0.6520   -2.4830 hn        1 MOL      0.143284
     79 H35         1.5230    1.5250   -4.1330 h1        1 MOL      0.110627
     80 H36         2.5250    1.3180   -2.7450 h1        1 MOL      0.110627
     81 N9          0.3250    2.1570   -1.0420 n         1 MOL     -0.313475
     82 C25        -0.3150    3.1100   -0.0240 c3        1 MOL      0.049896
     83 C26        -1.5460    2.4510    0.6520 c         1 MOL      0.517165
     84 O13        -1.7160    1.2110    0.6680 o         1 MOL     -0.318585
     85 C27         0.6660    3.6080    1.0020 c3        1 MOL      0.039480
     86 C28         1.8280    4.3580    0.5050 ca        1 MOL     -0.154694
     87 C29         1.5920    5.4120   -0.4470 ca        1 MOL     -0.039668
     88 C30         3.1070    3.9460    0.9070 ca        1 MOL     -0.039668
     89 C31         2.6490    6.1680   -0.8850 ca        1 MOL     -0.281584
     90 C32         4.1650    4.7820    0.5040 ca        1 MOL     -0.281584
     91 C33         3.9450    5.8960   -0.4130 ca        1 MOL      0.345096
     92 O14         5.0320    6.6780   -0.7660 oh        1 MOL     -0.521363
     93 H37         0.5950    1.2320   -0.7280 hn        1 MOL      0.145678
     94 H38        -0.6010    3.9950   -0.5910 h1        1 MOL      0.050470
     95 H39         0.9450    2.6930    1.5240 hc        1 MOL      0.015171
     96 H40         0.1790    4.1830    1.7890 hc        1 MOL      0.015171
     97 H41         0.6390    5.8620   -0.7030 ha        1 MOL      0.116725
     98 H42         3.2380    3.1200    1.5880 ha        1 MOL      0.116725
     99 H43         2.3990    7.0380   -1.4700 ha        1 MOL      0.148023
    100 H44         5.1330    4.3750    0.7020 ha        1 MOL      0.148023
    101 H45         4.7350    7.2910   -1.4380 ho        1 MOL      0.393530
    102 N10        -2.4710    3.2370    1.1550 n         1 MOL     -0.518089
    103 C34        -3.7980    2.8690    1.7350 c3        1 MOL     -0.228931
    104 C35        -4.7300    2.5430    0.5420 c         1 MOL      0.484063
    105 O15        -5.0440    1.3940    0.3310 o         1 MOL     -0.416813
    106 C36        -4.4010    3.8790    2.7840 c3        1 MOL      0.348459
    107 C37        -3.4840    4.1290    4.0580 c3        1 MOL      0.187972
    108 C38        -5.7780    3.3740    3.2510 c3        1 MOL     -0.386186
    109 C39        -3.6990    5.3800    4.8900 c3        1 MOL     -0.424040
    110 H46        -2.2670    4.2270    1.1580 hn        1 MOL      0.276343
    111 H47        -3.7040    1.9020    2.2410 h1        1 MOL      0.051799
    112 H48        -4.5860    4.8620    2.3590 hc        1 MOL     -0.070980
    113 H49        -2.4940    4.2350    3.6050 hc        1 MOL     -0.029967
    114 H50        -3.4220    3.1870    4.6010 hc        1 MOL     -0.029967
    115 H51        -5.8680    2.2890    3.3140 hc        1 MOL      0.088635
    116 H52        -6.0250    3.8400    4.2080 hc        1 MOL      0.088635
    117 H53        -6.5660    3.6430    2.5560 hc        1 MOL      0.088635
    118 H54        -2.8570    5.3930    5.5750 hc        1 MOL      0.113649
    119 H55        -3.5290    6.2750    4.3020 hc        1 MOL      0.113649
    120 H56        -4.7020    5.2690    5.3070 hc        1 MOL      0.113649
    121 N11        -5.0490    3.4970   -0.3260 n         1 MOL     -0.332860
    122 C40        -5.7180    3.2900   -1.5860 c3        1 MOL     -0.026892
    123 C41        -7.1910    2.8280   -1.3930 c         1 MOL      0.510277
    124 O16        -7.7910    2.3480   -2.3290 o         1 MOL     -0.479452
    125 C42        -5.6420    4.5060   -2.5130 c3        1 MOL      0.058091
    126 O17        -6.7640    5.3420   -2.3560 oh        1 MOL     -0.603654
    127 H57        -4.8300    4.4620   -0.1210 hn        1 MOL      0.302578
    128 H58        -5.2710    2.4630   -2.1400 h1        1 MOL      0.115104
    129 H59        -5.5940    4.2840   -3.5840 h1        1 MOL      0.063056
    130 H60        -4.8000    5.1140   -2.1730 h1        1 MOL      0.063056
    131 H61        -6.6090    6.1440   -2.8550 ho        1 MOL      0.424651
    132 N12        -7.6810    2.8190   -0.1550 n         1 MOL     -0.307108
    133 C43        -8.9970    2.2100    0.1810 c3        1 MOL      0.193900
    134 C44        -9.0370    0.7260   -0.1270 c         1 MOL      0.358401
    135 O18       -10.1250    0.1200   -0.2650 o         1 MOL     -0.493352
    136 C45       -10.1130    3.0630   -0.3320 c3        1 MOL     -0.237383
    137 H62        -7.2220    3.4260    0.5070 hn        1 MOL      0.186255
    138 H63        -9.1010    2.3040    1.2660 h1        1 MOL      0.052216
    139 H64        -9.9910    4.0960   -0.0020 hc        1 MOL      0.075848
    140 H65       -10.1700    3.0880   -1.4170 hc        1 MOL      0.075848
    141 H66       -11.0970    2.6900   -0.0270 hc        1 MOL      0.075848
    142 N13        -7.8710    0.0280   -0.3490 n         1 MOL     -0.443363
    143 C46        -7.8030   -1.3010   -0.9550 c3        1 MOL      0.674549
    144 C47        -6.6550   -2.1950   -0.3630 c         1 MOL      0.181095
    145 O19        -5.6520   -1.7380    0.1650 o         1 MOL     -0.502062
    146 C48        -7.7340   -1.2650   -2.5320 c3        1 MOL     -0.224681
    147 H67        -7.0040    0.5070   -0.1400 hn        1 MOL      0.125187
    148 H68        -8.7090   -1.8440   -0.7060 h1        1 MOL     -0.099741
    149 H69        -7.1530   -0.4300   -2.9130 hc        1 MOL      0.056770
    150 H70        -7.3440   -2.2350   -2.8450 hc        1 MOL      0.056770
    151 H71        -8.7340   -1.1790   -2.9540 hc        1 MOL      0.056770
    152 N14        -6.7560   -3.5270   -0.5800 n         1 MOL     -0.330274
    153 C49        -5.9190   -4.6070   -0.0490 c3        1 MOL     -0.040360
    154 C50        -5.7400   -4.5250    1.4890 c         1 MOL      0.368769
    155 O20        -4.7820   -5.0410    2.0820 o         1 MOL     -0.485923
    156 C51        -4.5990   -4.6410   -0.8150 c3        1 MOL      0.120189
    157 C52        -3.7730   -5.8860   -0.5760 c3        1 MOL     -0.108543
    158 C53        -2.8430   -6.1720   -1.8390 c         1 MOL      0.652994
    159 O21        -3.4070   -6.5410   -2.9310 o         1 MOL     -0.678275
    160 O22        -1.5910   -5.9780   -1.7510 o         1 MOL     -0.678275
    161 H72        -7.5230   -3.8540   -1.1450 hn        1 MOL      0.272347
    162 H73        -6.3670   -5.5800   -0.2870 h1        1 MOL      0.104610
    163 H74        -4.0550   -3.7420   -0.5350 hc        1 MOL     -0.009423
    164 H75        -4.9840   -4.5780   -1.8340 hc        1 MOL     -0.009423
    165 H76        -4.4390   -6.7440   -0.4730 hc        1 MOL     -0.016069
    166 H77        -3.1370   -5.8600    0.3060 hc        1 MOL     -0.016069
    167 N15        -6.7250   -4.0680    2.2280 n         1 MOL     -0.162000
    168 C54        -6.7420   -3.9370    3.7310 c3        1 MOL     -0.163534
    169 H78        -5.8840   -3.3470    4.0530 h1        1 MOL      0.091122
    170 H79        -7.6610   -3.4400    4.0420 h1        1 MOL      0.091122
    171 H80        -6.6930   -4.9270    4.1830 h1        1 MOL      0.091122
    172 H81        -7.5750   -3.8440    1.7240 hn        1 MOL      0.190162
    173 Ca1        -1.1850   -1.2400    1.8400 Ca        1 MOL      1.773253
    174 O23        -0.7420   -2.1830    4.3710 oh        1 MOL     -0.864011
    175 H82        -0.8760   -1.4870    5.0010 ho        1 MOL      0.424171
    176 H83        -0.2840   -2.8720    4.8600 ho        1 MOL      0.424171
    177 O24        -1.6570    0.7990    3.4440 oh        1 MOL     -0.864011
    178 H84        -2.2270    0.6500    4.1970 ho        1 MOL      0.424171
    179 H85        -0.8600    1.1700    3.8210 ho        1 MOL      0.424171
    180 O25         0.6090   -3.2120    1.6860 oh        1 MOL     -0.864011
    181 H86         0.3360   -4.0600    1.3550 ho        1 MOL      0.424171
    182 H87         1.1130   -3.4190    2.4710 ho        1 MOL      0.424171
    183 O26        -3.7980   -0.8300    1.7280 oh        1 MOL     -0.864011
    184 H88        -4.1740    0.0460    1.7830 ho        1 MOL      0.424171
    185 H89        -4.4380   -1.3300    1.2210 ho        1 MOL      0.424171
    186 O27        -2.5150   -3.4900    2.1690 oh        1 MOL     -0.864011
    187 H90        -2.0970   -4.2130    1.6890 ho        1 MOL      0.424171
    188 H91        -3.4060   -3.8060    2.3320 ho        1 MOL      0.424171
@<TRIPOS>BOND
     1    1    2 1   
     2    1    4 1   
     3    1    5 1   
     4    1    6 1   
     5    2    3 2   
     6    2    7 1   
     7    7    8 1   
     8    7   15 1   
     9    8    9 1   
    10    8   11 1   
    11    8   16 1   
    12    9   10 2   
    13    9   19 1   
    14   11   12 1   
    15   11   17 1   
    16   11   18 1   
    17   12   13 1   
    18   12   14 1   
    19   19   20 1   
    20   19   28 1   
    21   20   21 1   
    22   20   23 1   
    23   20   29 1   
    24   21   22 2   
    25   21   41 1   
    26   23   24 1   
    27   23   30 1   
    28   23   31 1   
    29   24   25 1   
    30   24   32 1   
    31   24   33 1   
    32   25   26 1   
    33   25   34 1   
    34   25   35 1   
    35   26   27 1   
    36   26   36 1   
    37   26   37 1   
    38   27   38 1   
    39   27   39 1   
    40   27   40 1   
    41   41   42 1   
    42   41   49 1   
    43   42   43 1   
    44   42   45 1   
    45   42   50 1   
    46   43   44 2   
    47   43   53 1   
    48   45   46 1   
    49   45   51 1   
    50   45   52 1   
    51   46   47 1   
    52   46   48 1   
    53   53   54 1   
    54   53   57 1   
    55   54   55 1   
    56   54   58 1   
    57   54   59 1   
    58   55   56 2   
    59   55   60 1   
    60   60   61 1   
    61   60   68 1   
    62   61   62 1   
    63   61   64 1   
    64   61   69 1   
    65   62   63 2   
    66   62   74 1   
    67   64   65 1   
    68   64   70 1   
    69   64   71 1   
    70   65   66 1   
    71   65   67 2   
    72   66   72 1   
    73   66   73 1   
    74   74   75 1   
    75   74   78 1   
    76   75   76 1   
    77   75   79 1   
    78   75   80 1   
    79   76   77 2   
    80   76   81 1   
    81   81   82 1   
    82   81   93 1   
    83   82   83 1   
    84   82   85 1   
    85   82   94 1   
    86   83   84 2   
    87   83  102 1   
    88   85   86 1   
    89   85   95 1   
    90   85   96 1   
    91   86   87 ar  
    92   86   88 ar  
    93   87   89 ar  
    94   87   97 1   
    95   88   90 ar  
    96   88   98 1   
    97   89   91 ar  
    98   89   99 1   
    99   90   91 ar  
   100   90  100 1   
   101   91   92 1   
   102   92  101 1   
   103  102  103 1   
   104  102  110 1   
   105  103  104 1   
   106  103  106 1   
   107  103  111 1   
   108  104  105 2   
   109  104  121 1   
   110  106  107 1   
   111  106  108 1   
   112  106  112 1   
   113  107  109 1   
   114  107  113 1   
   115  107  114 1   
   116  108  115 1   
   117  108  116 1   
   118  108  117 1   
   119  109  118 1   
   120  109  119 1   
   121  109  120 1   
   122  121  122 1   
   123  121  127 1   
   124  122  123 1   
   125  122  125 1   
   126  122  128 1   
   127  123  124 2   
   128  123  132 1   
   129  125  126 1   
   130  125  129 1   
   131  125  130 1   
   132  126  131 1   
   133  132  133 1   
   134  132  137 1   
   135  133  134 1   
   136  133  136 1   
   137  133  138 1   
   138  134  135 2   
   139  134  142 1   
   140  136  139 1   
   141  136  140 1   
   142  136  141 1   
   143  142  143 1   
   144  142  147 1   
   145  143  144 1   
   146  143  146 1   
   147  143  148 1   
   148  144  145 2   
   149  144  152 1   
   150  146  149 1   
   151  146  150 1   
   152  146  151 1   
   153  152  153 1   
   154  152  161 1   
   155  153  154 1   
   156  153  156 1   
   157  153  162 1   
   158  154  155 2   
   159  154  167 1   
   160  156  157 1   
   161  156  163 1   
   162  156  164 1   
   163  157  158 1   
   164  157  165 1   
   165  157  166 1   
   166  158  159 1   
   167  158  160 1   
   168  167  168 1   
   169  167  172 1   
   170  168  169 1   
   171  168  170 1   
   172  168  171 1   
   173  174  175 1   
   174  174  176 1   
   175  177  178 1   
   176  177  179 1   
   177  180  181 1   
   178  180  182 1   
   179  183  184 1   
   180  183  185 1   
   181  186  187 1   
   182  186  188 1   
@<TRIPOS>SUBSTRUCTURE
     1 MOL         1 TEMP              0 ****  ****    0 ROOT
