@<TRIPOS>MOLECULE
MOL
  195   189     1     0     0
SMALL
resp


@<TRIPOS>ATOM
      1 C1         -3.4370    7.1450    1.2320 c3        1 MOL     -0.390923
      2 C2         -3.1770    5.6970    1.3520 c         1 MOL      0.696456
      3 O1         -2.8440    5.0590    2.3570 o         1 MOL     -0.575680
      4 H1         -3.3490    7.6120    2.2130 hc        1 MOL      0.107487
      5 H2         -2.7100    7.5910    0.5520 hc        1 MOL      0.107487
      6 H3         -4.4420    7.3030    0.8440 hc        1 MOL      0.107487
      7 N1         -3.4680    4.9900    0.2380 n         1 MOL     -0.493079
      8 C3         -3.3260    3.5640    0.0290 c3        1 MOL      0.114611
      9 C4         -1.9050    3.0950   -0.3190 c         1 MOL      0.216127
     10 O2         -1.7350    2.0130   -0.9060 o         1 MOL     -0.323117
     11 C5         -4.4600    2.9340   -0.8880 c3        1 MOL     -0.274817
     12 C6         -4.5860    3.5530   -2.2890 c         1 MOL      0.746051
     13 O3         -4.5110    2.8680   -3.3390 o         1 MOL     -0.719508
     14 O4         -4.8880    4.7810   -2.4470 o         1 MOL     -0.719508
     15 H4         -3.4770    5.5200   -0.6180 hn        1 MOL      0.234423
     16 H5         -3.4880    3.1160    1.0190 h1        1 MOL      0.158098
     17 H6         -5.3990    2.9140   -0.3360 hc        1 MOL      0.060169
     18 H7         -4.2390    1.8720   -0.9900 hc        1 MOL      0.060169
     19 N2         -0.7980    3.7620    0.0930 n         1 MOL     -0.138141
     20 C7          0.6400    3.3650   -0.0480 c3        1 MOL      0.017728
     21 C8          1.3140    2.9280    1.2400 c         1 MOL      0.179795
     22 O5          1.0630    3.5620    2.2750 o         1 MOL     -0.462667
     23 C9          1.5390    4.5730   -0.6180 c3        1 MOL     -0.152901
     24 C10         1.1660    5.1910   -1.9870 c3        1 MOL     -0.093799
     25 C11         1.4120    4.0510   -3.0110 c3        1 MOL     -0.019712
     26 C12         1.2060    4.5290   -4.4380 c3        1 MOL     -0.060223
     27 N3         -0.1420    4.9260   -4.8030 n4        1 MOL     -0.226224
     28 H8         -0.9600    4.7080    0.4130 hn        1 MOL      0.189311
     29 H9          0.6930    2.6110   -0.8380 h1        1 MOL      0.104779
     30 H10         2.5770    4.2720   -0.7400 hc        1 MOL      0.087774
     31 H11         1.5120    5.3470    0.1560 hc        1 MOL      0.087774
     32 H12         1.6690    6.1480   -2.1540 hc        1 MOL      0.033660
     33 H13         0.0880    5.3730   -1.9870 hc        1 MOL      0.033660
     34 H14         0.7920    3.1900   -2.7630 hc        1 MOL      0.094527
     35 H15         2.4720    3.7980   -2.9760 hc        1 MOL      0.094527
     36 H16         1.4110    3.6900   -5.0970 hx        1 MOL      0.095480
     37 H17         1.8480    5.3680   -4.7260 hx        1 MOL      0.095480
     38 H18        -0.6550    5.5910   -4.2450 hn        1 MOL      0.295495
     39 H19        -0.2670    5.0860   -5.7850 hn        1 MOL      0.295495
     40 H20        -0.7020    4.1210   -4.5830 hn        1 MOL      0.295495
     41 N4          2.0860    1.8760    1.2880 n         1 MOL      0.062495
     42 C13         2.2440    0.7550    0.2830 c3        1 MOL     -0.121340
     43 C14         2.7210    1.1570   -1.1610 c         1 MOL      0.277556
     44 O6          1.9820    1.0990   -2.1650 o         1 MOL     -0.524889
     45 C15         0.9220   -0.1100    0.3470 c3        1 MOL      1.180700
     46 C16         0.5190   -0.4440    1.8020 c         1 MOL      0.110896
     47 O7         -0.3810    0.1960    2.3900 o         1 MOL     -0.588906
     48 O8          0.9330   -1.5000    2.2930 o         1 MOL     -0.588906
     49 H21         2.6190    1.8390    2.1400 hn        1 MOL      0.161310
     50 H22         3.0670    0.1390    0.6490 h1        1 MOL     -0.006486
     51 H23         1.0800   -1.0140   -0.2410 hc        1 MOL     -0.314053
     52 H24         0.0920    0.4320   -0.1040 hc        1 MOL     -0.314053
     53 N5          3.8890    1.8410   -1.3440 n         1 MOL     -0.289102
     54 C17         4.9050    2.0690   -0.3390 c3        1 MOL      0.034546
     55 C18         5.8860    3.1000   -0.9400 c         1 MOL      0.558780
     56 O9          5.6770    3.8020   -1.9430 o         1 MOL     -0.547458
     57 H25         4.0890    2.2380   -2.2540 hn        1 MOL      0.260680
     58 H26         5.3800    1.0950   -0.1980 h1        1 MOL     -0.011903
     59 H27         4.4880    2.4010    0.6150 h1        1 MOL     -0.011903
     60 N6          7.0400    3.4090   -0.2830 n         1 MOL     -0.483405
     61 C19         7.4000    2.6390    0.8930 c3        1 MOL      0.040952
     62 C20         8.0540    1.2410    0.6240 c         1 MOL      0.505641
     63 O10         8.4870    0.8730   -0.4770 o         1 MOL     -0.437721
     64 C21         8.2610    3.4890    1.8110 c3        1 MOL     -0.331097
     65 C22         9.5170    4.0720    1.1040 c         1 MOL      0.772145
     66 O11        10.4930    3.3190    0.9140 o         1 MOL     -0.659559
     67 O12         9.6180    5.2420    0.7400 o         1 MOL     -0.659559
     68 H28         7.7160    4.0780   -0.6220 hn        1 MOL      0.351284
     69 H29         6.5310    2.5020    1.5430 h1        1 MOL      0.058932
     70 H30         8.5110    2.9520    2.7250 hc        1 MOL      0.059485
     71 H31         7.6830    4.3300    2.1970 hc        1 MOL      0.059485
     72 N7          8.0870    0.3780    1.7190 n         1 MOL     -0.384644
     73 C23         8.5850   -1.0760    1.7090 c3        1 MOL     -0.274200
     74 C24         7.5410   -2.0220    1.0700 c         1 MOL      0.556459
     75 O13         7.9700   -2.9040    0.3470 o         1 MOL     -0.514385
     76 H32         7.7950    0.7810    2.5990 hn        1 MOL      0.247732
     77 H33         8.6550   -1.3230    2.7610 h1        1 MOL      0.160557
     78 H34         9.5460   -1.0420    1.2000 h1        1 MOL      0.160557
     79 N8          6.2670   -1.8310    1.4230 n         1 MOL     -0.439680
     80 C25         5.1490   -2.5950    0.7720 c3        1 MOL      0.185925
     81 C26         4.8160   -2.1800   -0.6740 c         1 MOL      0.570743
     82 O14         5.1140   -1.0780   -1.1100 o         1 MOL     -0.425013
     83 C27         3.9650   -2.6040    1.7340 c3        1 MOL      0.326035
     84 C28         4.0820   -3.7620    2.7570 c3        1 MOL     -0.542562
     85 O15         2.7520   -2.8710    1.0500 oh        1 MOL     -0.374750
     86 H35         6.0500   -1.0790    2.0620 hn        1 MOL      0.240734
     87 H36         5.5360   -3.6040    0.6350 h1        1 MOL      0.005419
     88 H37         3.7720   -1.6140    2.1560 h1        1 MOL     -0.040655
     89 H38         2.0830   -2.5000    1.6260 ho        1 MOL      0.151393
     90 H39         3.1190   -4.1160    3.1210 hc        1 MOL      0.127628
     91 H40         4.5850   -4.6450    2.3780 hc        1 MOL      0.127628
     92 H41         4.7510   -3.4030    3.5360 hc        1 MOL      0.127628
     93 N9          4.1270   -3.0850   -1.3450 n         1 MOL     -0.674403
     94 C29         3.4770   -2.9190   -2.7050 c3        1 MOL      0.094264
     95 C30         1.9120   -3.1200   -2.6430 c         1 MOL      0.414481
     96 O16         1.2950   -2.9860   -3.7270 o         1 MOL     -0.562410
     97 C31         4.1400   -3.6660   -3.8810 c3        1 MOL      0.015714
     98 C32         3.8290   -5.1640   -3.9030 c3        1 MOL      0.250810
     99 C33         5.5880   -3.3920   -3.9280 c3        1 MOL     -0.041399
    100 C34         4.3800   -5.8380   -5.1480 c3        1 MOL     -0.325669
    101 H42         4.0330   -3.9870   -0.9050 hn        1 MOL      0.327440
    102 H43         3.6190   -1.8840   -3.0020 h1        1 MOL      0.132176
    103 H44         3.7130   -3.1290   -4.7250 hc        1 MOL      0.032180
    104 H45         2.7490   -5.1580   -4.0400 hc        1 MOL     -0.055807
    105 H46         4.0090   -5.6660   -2.9430 hc        1 MOL     -0.055807
    106 H47         5.8340   -2.4120   -3.5170 hc        1 MOL      0.014226
    107 H48         6.1480   -4.1340   -3.3620 hc        1 MOL      0.014226
    108 H49         6.0080   -3.4960   -4.9300 hc        1 MOL      0.014226
    109 H50         5.4600   -5.9140   -5.0370 hc        1 MOL      0.075190
    110 H51         3.9190   -6.8240   -5.2330 hc        1 MOL      0.075190
    111 H52         4.0460   -5.3450   -6.0600 hc        1 MOL      0.075190
    112 N10         1.3900   -3.4620   -1.5060 n         1 MOL     -0.180554
    113 C35        -0.0130   -3.9350   -1.3070 c3        1 MOL      0.103857
    114 C36        -1.0250   -2.8950   -1.0960 c         1 MOL      0.736019
    115 O17        -1.6340   -2.8650   -0.0240 o         1 MOL     -0.567877
    116 C37        -0.0680   -5.0920   -0.2260 c3        1 MOL      0.151135
    117 C38         1.1760   -6.0460   -0.2910 c3        1 MOL     -0.027322
    118 O18        -1.1120   -5.9720   -0.4490 oh        1 MOL     -0.614467
    119 H53         1.9970   -3.6310   -0.7280 hn        1 MOL      0.127036
    120 H54        -0.3470   -4.4350   -2.2190 h1        1 MOL      0.061060
    121 H55        -0.1430   -4.6980    0.7860 h1        1 MOL      0.019805
    122 H56        -0.8640   -6.7740    0.0170 ho        1 MOL      0.390310
    123 H57         1.1530   -6.9560    0.3120 hc        1 MOL      0.005437
    124 H58         1.4780   -6.3210   -1.3020 hc        1 MOL      0.005437
    125 H59         1.9710   -5.4440    0.1690 hc        1 MOL      0.005437
    126 N11        -1.3110   -2.0530   -2.1180 n         1 MOL     -0.665091
    127 C39        -2.4260   -1.0860   -2.1200 c3        1 MOL     -0.094787
    128 C40        -3.7570   -1.8190   -1.9300 c         1 MOL      0.739796
    129 O19        -4.0360   -2.9160   -2.4750 o         1 MOL     -0.574071
    130 C41        -2.4920   -0.1970   -3.3430 c3        1 MOL      0.607166
    131 C42        -2.2980   -0.8280   -4.7140 c3        1 MOL     -0.455698
    132 O20        -1.4350    0.7070   -3.2040 oh        1 MOL     -0.606582
    133 H60        -0.8700   -2.1850   -3.0140 hn        1 MOL      0.343234
    134 H61        -2.2890   -0.3570   -1.3280 h1        1 MOL      0.128853
    135 H62        -3.4420    0.3260   -3.2870 h1        1 MOL     -0.057838
    136 H63        -1.4790    1.1250   -2.3380 ho        1 MOL      0.219046
    137 H64        -2.6510   -0.0670   -5.4210 hc        1 MOL      0.109976
    138 H65        -1.2470   -1.0770   -4.8310 hc        1 MOL      0.109976
    139 H66        -2.9170   -1.7250   -4.7220 hc        1 MOL      0.109976
    140 N12        -4.6620   -1.1700   -1.2110 n         1 MOL     -0.719622
    141 C43        -6.0990   -1.3700   -1.1630 c3        1 MOL      0.056493
    142 C44        -6.5730   -1.1700    0.3150 c         1 MOL      0.646406
    143 O21        -7.6920   -1.5880    0.5300 o         1 MOL     -0.583545
    144 C45        -6.6660   -0.2970   -2.1710 c3        1 MOL     -0.210333
    145 C46        -8.1370   -0.3530   -2.4510 c3        1 MOL     -0.023727
    146 C47        -8.4470   -1.6560   -3.1830 c3        1 MOL      0.010145
    147 C48        -9.7980   -1.7250   -3.8410 c3        1 MOL     -0.034326
    148 N13        -9.8890   -1.3260   -5.2070 n4        1 MOL     -0.262925
    149 H67        -4.3180   -0.3500   -0.7510 hn        1 MOL      0.194033
    150 H68        -6.2660   -2.3650   -1.5720 h1        1 MOL      0.095292
    151 H69        -6.0520   -0.3120   -3.0660 hc        1 MOL      0.104587
    152 H70        -6.5490    0.6870   -1.7220 hc        1 MOL      0.104587
    153 H71        -8.3570    0.5670   -2.9870 hc        1 MOL      0.048812
    154 H72        -8.6540   -0.3630   -1.4930 hc        1 MOL      0.048812
    155 H73        -8.2380   -2.5230   -2.5410 hc        1 MOL      0.045843
    156 H74        -7.7250   -1.7600   -3.9980 hc        1 MOL      0.045843
    157 H75       -10.3850   -0.9530   -3.3450 hx        1 MOL      0.075259
    158 H76       -10.3430   -2.6490   -3.6410 hx        1 MOL      0.075259
    159 H77       -10.8770   -1.3710   -5.4060 hn        1 MOL      0.269819
    160 H78        -9.4550   -0.4500   -5.4160 hn        1 MOL      0.269819
    161 H79        -9.4530   -2.0250   -5.7810 hn        1 MOL      0.269819
    162 N14        -5.7930   -0.6300    1.2340 n         1 MOL     -0.267634
    163 C49        -6.3860   -0.2660    2.4900 c3        1 MOL     -0.792173
    164 C50        -7.4350    0.8280    2.4050 c         1 MOL      0.670842
    165 O22        -7.1630    1.9760    2.0580 o         1 MOL     -0.511868
    166 C51        -5.3680    0.2510    3.4790 c3        1 MOL      0.657717
    167 C52        -4.4140   -0.8170    3.9320 c3        1 MOL     -0.202457
    168 C53        -3.7220   -0.4480    5.2610 c         1 MOL      0.659147
    169 O23        -4.3230    0.1010    6.1690 o         1 MOL     -0.698493
    170 O24        -2.5330   -0.8350    5.4410 o         1 MOL     -0.698493
    171 H80        -4.8490   -0.3120    1.0900 hn        1 MOL      0.398204
    172 H81        -6.7680   -1.2000    2.8930 h1        1 MOL      0.214237
    173 H82        -5.9470    0.7280    4.2600 hc        1 MOL     -0.084182
    174 H83        -4.8070    1.0630    3.0110 hc        1 MOL     -0.084182
    175 H84        -3.6920   -1.1500    3.1820 hc        1 MOL     -0.013334
    176 H85        -5.0700   -1.6480    4.1760 hc        1 MOL     -0.013334
    177 N15        -8.6770    0.5950    2.9080 n         1 MOL     -0.312060
    178 C54        -9.7460    1.6070    3.0820 c3        1 MOL     -0.130139
    179 H86        -9.4150    2.3660    3.7900 h1        1 MOL      0.079110
    180 H87        -9.9630    2.0750    2.1220 h1        1 MOL      0.079110
    181 H88       -10.6460    1.1230    3.4620 h1        1 MOL      0.079110
    182 H89        -8.8970   -0.2420    3.4360 hn        1 MOL      0.260203
    183 Ca1        -0.2020   -1.9320    4.5600 Ca        1 MOL      1.746655
    184 O25        -1.6730   -3.0830    2.7180 oh        1 MOL     -0.877352
    185 H90        -2.3300   -3.7790    2.8040 ho        1 MOL      0.430206
    186 H91        -1.5550   -2.9780    1.7800 ho        1 MOL      0.430206
    187 O26        -2.0710   -3.9600    5.8850 oh        1 MOL     -0.877352
    188 H92        -2.8140   -4.0890    5.2960 ho        1 MOL      0.430206
    189 H93        -2.3460   -4.3490    6.7170 ho        1 MOL      0.430206
    190 O27         0.2020    0.7220    5.5140 oh        1 MOL     -0.877352
    191 H94        -0.2060    0.6450    6.3760 ho        1 MOL      0.430206
    192 H95         0.5460    1.6170    5.4950 ho        1 MOL      0.430206
    193 O28         0.7830   -4.5020    4.3450 oh        1 MOL     -0.877352
    194 H96         0.1930   -5.2610    4.3790 ho        1 MOL      0.430206
    195 H97         1.6440   -4.8670    4.5320 ho        1 MOL      0.430206
@<TRIPOS>BOND
     1    1    2 1   
     2    1    4 1   
     3    1    5 1   
     4    1    6 1   
     5    2    3 2   
     6    2    7 1   
     7    7    8 1   
     8    7   15 1   
     9    8    9 1   
    10    8   11 1   
    11    8   16 1   
    12    9   10 2   
    13    9   19 1   
    14   11   12 1   
    15   11   17 1   
    16   11   18 1   
    17   12   13 1   
    18   12   14 1   
    19   19   20 1   
    20   19   28 1   
    21   20   21 1   
    22   20   23 1   
    23   20   29 1   
    24   21   22 2   
    25   21   41 1   
    26   23   24 1   
    27   23   30 1   
    28   23   31 1   
    29   24   25 1   
    30   24   32 1   
    31   24   33 1   
    32   25   26 1   
    33   25   34 1   
    34   25   35 1   
    35   26   27 1   
    36   26   36 1   
    37   26   37 1   
    38   27   38 1   
    39   27   39 1   
    40   27   40 1   
    41   41   42 1   
    42   41   49 1   
    43   42   43 1   
    44   42   45 1   
    45   42   50 1   
    46   43   44 2   
    47   43   53 1   
    48   45   46 1   
    49   45   51 1   
    50   45   52 1   
    51   46   47 1   
    52   46   48 1   
    53   53   54 1   
    54   53   57 1   
    55   54   55 1   
    56   54   58 1   
    57   54   59 1   
    58   55   56 2   
    59   55   60 1   
    60   60   61 1   
    61   60   68 1   
    62   61   62 1   
    63   61   64 1   
    64   61   69 1   
    65   62   63 2   
    66   62   72 1   
    67   64   65 1   
    68   64   70 1   
    69   64   71 1   
    70   65   66 1   
    71   65   67 1   
    72   72   73 1   
    73   72   76 1   
    74   73   74 1   
    75   73   77 1   
    76   73   78 1   
    77   74   75 2   
    78   74   79 1   
    79   79   80 1   
    80   79   86 1   
    81   80   81 1   
    82   80   83 1   
    83   80   87 1   
    84   81   82 2   
    85   81   93 1   
    86   83   84 1   
    87   83   85 1   
    88   83   88 1   
    89   84   90 1   
    90   84   91 1   
    91   84   92 1   
    92   85   89 1   
    93   93   94 1   
    94   93  101 1   
    95   94   95 1   
    96   94   97 1   
    97   94  102 1   
    98   95   96 2   
    99   95  112 1   
   100   97   98 1   
   101   97   99 1   
   102   97  103 1   
   103   98  100 1   
   104   98  104 1   
   105   98  105 1   
   106   99  106 1   
   107   99  107 1   
   108   99  108 1   
   109  100  109 1   
   110  100  110 1   
   111  100  111 1   
   112  112  113 1   
   113  112  119 1   
   114  113  114 1   
   115  113  116 1   
   116  113  120 1   
   117  114  115 2   
   118  114  126 1   
   119  116  117 1   
   120  116  118 1   
   121  116  121 1   
   122  117  123 1   
   123  117  124 1   
   124  117  125 1   
   125  118  122 1   
   126  126  127 1   
   127  126  133 1   
   128  127  128 1   
   129  127  130 1   
   130  127  134 1   
   131  128  129 2   
   132  128  140 1   
   133  130  131 1   
   134  130  132 1   
   135  130  135 1   
   136  131  137 1   
   137  131  138 1   
   138  131  139 1   
   139  132  136 1   
   140  140  141 1   
   141  140  149 1   
   142  141  142 1   
   143  141  144 1   
   144  141  150 1   
   145  142  143 2   
   146  142  162 1   
   147  144  145 1   
   148  144  151 1   
   149  144  152 1   
   150  145  146 1   
   151  145  153 1   
   152  145  154 1   
   153  146  147 1   
   154  146  155 1   
   155  146  156 1   
   156  147  148 1   
   157  147  157 1   
   158  147  158 1   
   159  148  159 1   
   160  148  160 1   
   161  148  161 1   
   162  162  163 1   
   163  162  171 1   
   164  163  164 1   
   165  163  166 1   
   166  163  172 1   
   167  164  165 2   
   168  164  177 1   
   169  166  167 1   
   170  166  173 1   
   171  166  174 1   
   172  167  168 1   
   173  167  175 1   
   174  167  176 1   
   175  168  169 1   
   176  168  170 1   
   177  177  178 1   
   178  177  182 1   
   179  178  179 1   
   180  178  180 1   
   181  178  181 1   
   182  184  185 1   
   183  184  186 1   
   184  187  188 1   
   185  187  189 1   
   186  190  191 1   
   187  190  192 1   
   188  193  194 1   
   189  193  195 1   
@<TRIPOS>SUBSTRUCTURE
     1 MOL         1 TEMP              0 ****  ****    0 ROOT
