@<TRIPOS>MOLECULE
MOL
  188   182     1     0     0
SMALL
resp


@<TRIPOS>ATOM
      1 C1         -5.4550   -0.1530   -4.9170 c3        1 MOL     -0.292150
      2 C2         -6.4240   -0.4380   -3.7520 c         1 MOL      0.597885
      3 O1         -6.4480   -1.5980   -3.2950 o         1 MOL     -0.573356
      4 H1         -5.2170    0.9100   -4.9400 hc        1 MOL      0.079379
      5 H2         -4.5400   -0.7280   -4.7780 hc        1 MOL      0.079379
      6 H3         -5.9250   -0.4400   -5.8580 hc        1 MOL      0.079379
      7 N1         -7.2880    0.5230   -3.4500 n         1 MOL     -0.332687
      8 C3         -8.3640    0.2340   -2.5250 c3        1 MOL     -0.007331
      9 C4         -7.7950   -0.0390   -1.1340 c         1 MOL      0.423581
     10 O2         -6.9800    0.7110   -0.5810 o         1 MOL     -0.478661
     11 C5         -9.3780    1.4120   -2.3490 c3        1 MOL     -0.159821
     12 C6         -8.6480    2.7640   -2.2090 c         1 MOL      0.740645
     13 O3         -8.9600    3.5270   -1.2860 o         1 MOL     -0.661196
     14 O4         -8.0290    3.2850   -3.1910 o         1 MOL     -0.661196
     15 H4         -7.1970    1.4770   -3.7720 hn        1 MOL      0.199534
     16 H5         -9.0080   -0.5910   -2.8240 h1        1 MOL      0.046503
     17 H6        -10.0560    1.2300   -1.5110 hc        1 MOL      0.032872
     18 H7         -9.9770    1.4910   -3.2500 hc        1 MOL      0.032872
     19 N2         -8.3430   -1.0720   -0.5360 n         1 MOL     -0.440271
     20 C7         -7.8650   -1.5580    0.7920 c3        1 MOL      0.070092
     21 C8         -6.5460   -2.2880    0.7960 c         1 MOL      0.675788
     22 O5         -6.5270   -3.4500    1.0410 o         1 MOL     -0.561225
     23 C9         -9.0230   -2.3980    1.4170 c3        1 MOL      0.003462
     24 C10       -10.1710   -1.4890    1.6490 c3        1 MOL      0.099072
     25 C11       -11.1010   -1.8940    2.7900 c3        1 MOL     -0.036014
     26 C12       -12.1650   -0.8430    3.1150 c3        1 MOL     -0.064360
     27 N3        -13.2360   -0.9280    2.1530 n4        1 MOL     -0.497793
     28 H8         -8.9290   -1.7180   -1.0300 hn        1 MOL      0.302564
     29 H9         -7.6590   -0.6980    1.4200 h1        1 MOL      0.044127
     30 H10        -8.6340   -2.8410    2.3360 hc        1 MOL      0.006468
     31 H11        -9.2660   -3.1620    0.6810 hc        1 MOL      0.006468
     32 H12       -10.7200   -1.3230    0.7240 hc        1 MOL     -0.023049
     33 H13        -9.7920   -0.5260    1.9840 hc        1 MOL     -0.023049
     34 H14       -10.5390   -2.0750    3.7060 hc        1 MOL      0.037976
     35 H15       -11.5650   -2.8240    2.4610 hc        1 MOL      0.037976
     36 H16       -11.7130    0.1510    3.1030 hx        1 MOL      0.143369
     37 H17       -12.5380   -0.8790    4.1450 hx        1 MOL      0.143369
     38 H18       -12.8060   -0.7060    1.2670 hn        1 MOL      0.366888
     39 H19       -13.5940   -1.8700    2.1040 hn        1 MOL      0.366888
     40 H20       -14.0260   -0.3200    2.3160 hn        1 MOL      0.366888
     41 N4         -5.4820   -1.5420    0.4430 n         1 MOL     -0.564697
     42 C13        -4.0390   -2.0270    0.3320 c3        1 MOL      0.080882
     43 C14        -3.3900   -2.4640    1.6680 c         1 MOL      0.359915
     44 O6         -3.5980   -1.7990    2.7050 o         1 MOL     -0.406320
     45 C15        -3.2640   -0.9020   -0.2510 c3        1 MOL     -0.185934
     46 C16        -1.7330   -1.1000   -0.3410 c         1 MOL      0.483912
     47 O7         -1.0010   -0.6660    0.5230 o         1 MOL     -0.620569
     48 O8         -1.1360   -1.6530   -1.3280 o         1 MOL     -0.620569
     49 H21        -5.6660   -0.6500   -0.0000 hn        1 MOL      0.328171
     50 H22        -4.0570   -2.9180   -0.2910 h1        1 MOL      0.090287
     51 H23        -3.4000   -0.0730    0.4450 hc        1 MOL      0.106447
     52 H24        -3.7620   -0.6730   -1.1970 hc        1 MOL      0.106447
     53 N5         -2.5340   -3.5600    1.7320 n         1 MOL     -0.183794
     54 C17        -1.9210   -4.1070    2.9670 c3        1 MOL     -0.352387
     55 C18        -1.1040   -3.2110    3.8570 c         1 MOL      0.654824
     56 O9         -0.9120   -3.5370    5.0250 o         1 MOL     -0.568681
     57 H25        -2.5060   -4.1290    0.8960 hn        1 MOL      0.235649
     58 H26        -1.2300   -4.8760    2.6120 h1        1 MOL      0.157557
     59 H27        -2.6880   -4.5420    3.5950 h1        1 MOL      0.157557
     60 N6         -0.6680   -2.0390    3.3360 n         1 MOL     -0.340402
     61 C19        -0.0630   -0.9580    4.0900 c3        1 MOL      0.140899
     62 C20        -0.6410    0.4440    3.7000 c         1 MOL      0.323432
     63 O10         0.0110    1.4760    3.9070 o         1 MOL     -0.499145
     64 C21         1.4640   -0.9510    4.0510 c3        1 MOL     -0.296305
     65 C22         2.2080   -0.5410    2.7870 c         1 MOL      0.900225
     66 N7          3.1020    0.3280    2.8940 n         1 MOL     -0.808736
     67 O11         2.1460   -1.1340    1.7430 o         1 MOL     -0.736520
     68 H28        -0.9830   -1.8070    2.4010 hn        1 MOL      0.136209
     69 H29        -0.2430   -1.1400    5.1540 h1        1 MOL      0.093943
     70 H30         1.8180   -1.9420    4.3150 hc        1 MOL      0.083284
     71 H31         1.7110   -0.2140    4.8190 hc        1 MOL      0.083284
     72 H32         3.2470    0.8260    3.7610 hn        1 MOL      0.325157
     73 H33         3.7280    0.5630    2.1380 hn        1 MOL      0.325157
     74 N8         -1.8810    0.5230    3.1530 n         1 MOL     -0.086036
     75 C23        -2.5620    1.7550    2.6340 c3        1 MOL     -0.314785
     76 C24        -1.8680    2.6800    1.6590 c         1 MOL      0.582179
     77 O12        -1.9800    3.9290    1.6980 o         1 MOL     -0.547992
     78 H34        -2.3760   -0.3440    2.9970 hn        1 MOL      0.070612
     79 H35        -2.7600    2.2930    3.5570 h1        1 MOL      0.149275
     80 H36        -3.5200    1.4150    2.2550 h1        1 MOL      0.149275
     81 N9         -0.9500    2.2130    0.8050 n         1 MOL     -0.417069
     82 C25        -0.1200    3.0130   -0.1330 c3        1 MOL      0.293243
     83 C26         1.2410    2.2680   -0.3850 c         1 MOL      0.151224
     84 O13         1.3330    1.0070   -0.4440 o         1 MOL     -0.366690
     85 C27        -0.7900    3.2090   -1.4930 c3        1 MOL      0.208739
     86 C28        -2.2500    3.5150   -1.5790 ca        1 MOL     -0.268945
     87 C29        -2.6300    4.8620   -1.4730 ca        1 MOL     -0.057108
     88 C30        -3.2280    2.5130   -1.6620 ca        1 MOL     -0.057108
     89 C31        -4.0070    5.1460   -1.5980 ca        1 MOL     -0.298749
     90 C32        -4.6290    2.8060   -1.7550 ca        1 MOL     -0.298749
     91 C33        -5.0050    4.1730   -1.7620 ca        1 MOL      0.465911
     92 O14        -6.2180    4.5990   -1.9320 oh        1 MOL     -0.532896
     93 H37        -0.7740    1.2190    0.7300 hn        1 MOL      0.286907
     94 H38         0.1290    3.9820    0.2810 h1        1 MOL     -0.004614
     95 H39        -0.7320    2.3020   -2.0900 hc        1 MOL     -0.025445
     96 H40        -0.1890    3.9580   -2.0130 hc        1 MOL     -0.025445
     97 H41        -1.8510    5.6110   -1.4320 ha        1 MOL      0.095746
     98 H42        -2.9760    1.4640   -1.7220 ha        1 MOL      0.095746
     99 H43        -4.2730    6.1890   -1.6080 ha        1 MOL      0.128253
    100 H44        -5.3350    2.0350   -2.0490 ha        1 MOL      0.128253
    101 H45        -6.8790    3.9630   -2.2160 ho        1 MOL      0.392487
    102 N10         2.3120    2.9880   -0.6140 n         1 MOL     -0.312114
    103 C34         3.6700    2.4800   -0.8390 c3        1 MOL      0.054999
    104 C35         4.4390    2.3320    0.5010 c         1 MOL      0.459488
    105 O15         4.8730    1.2110    0.8210 o         1 MOL     -0.250797
    106 C36         4.4600    3.2350   -1.8860 c3        1 MOL      0.209672
    107 C37         3.7120    3.2720   -3.2470 c3        1 MOL     -0.028088
    108 C38         5.9030    2.8030   -2.0910 c3        1 MOL     -0.296925
    109 C39         3.4770    1.8110   -3.7580 c3        1 MOL     -0.299892
    110 H46         2.2240    3.9830   -0.4900 hn        1 MOL      0.253765
    111 H47         3.6060    1.4650   -1.2210 h1        1 MOL     -0.131900
    112 H48         4.4610    4.2770   -1.5590 hc        1 MOL     -0.068094
    113 H49         4.2000    4.0270   -3.8610 hc        1 MOL      0.024029
    114 H50         2.7500    3.7500   -3.0590 hc        1 MOL      0.024029
    115 H51         6.0160    1.7440   -2.2880 hc        1 MOL      0.082719
    116 H52         6.3320    3.3700   -2.9260 hc        1 MOL      0.082719
    117 H53         6.3800    3.1070   -1.1570 hc        1 MOL      0.082719
    118 H54         4.3660    1.2120   -3.9660 hc        1 MOL      0.113512
    119 H55         2.8110    1.2530   -3.1050 hc        1 MOL      0.113512
    120 H56         2.8790    1.7320   -4.6620 hc        1 MOL      0.113512
    121 N11         4.6130    3.4300    1.2510 n         1 MOL     -0.325793
    122 C40         5.3310    3.5630    2.5410 c3        1 MOL     -0.065529
    123 C41         6.7400    2.8880    2.4420 c         1 MOL      0.153714
    124 O16         7.3040    2.2220    3.3840 o         1 MOL     -0.420296
    125 C42         5.5220    4.9740    2.9230 c3        1 MOL      0.200345
    126 O17         4.3330    5.6460    3.0700 oh        1 MOL     -0.570883
    127 H57         3.9700    4.1670    1.0190 hn        1 MOL      0.281403
    128 H58         4.6810    3.1570    3.3170 h1        1 MOL      0.158758
    129 H59         6.1460    5.4930    2.1980 h1        1 MOL      0.027785
    130 H60         6.1380    5.0050    3.8120 h1        1 MOL      0.027785
    131 H61         4.5950    6.3870    3.6370 ho        1 MOL      0.405367
    132 N12         7.4600    3.0880    1.3230 n         1 MOL     -0.067490
    133 C43         8.7170    2.5030    0.8420 c3        1 MOL      0.119289
    134 C44         8.7880    0.9900    1.0790 c         1 MOL      0.566464
    135 O18         9.7660    0.4300    1.5310 o         1 MOL     -0.520204
    136 C45         9.8240    3.3970    1.4430 c3        1 MOL     -0.428886
    137 H62         7.1090    3.7600    0.6450 hn        1 MOL      0.158757
    138 H63         8.7430    2.6520   -0.2390 h1        1 MOL      0.048826
    139 H64         9.8210    3.3150    2.5290 hc        1 MOL      0.124069
    140 H65        10.7940    3.0250    1.1150 hc        1 MOL      0.124069
    141 H66         9.7410    4.4620    1.2370 hc        1 MOL      0.124069
    142 N13         7.6720    0.2540    0.7170 n         1 MOL     -0.547652
    143 C46         7.5700   -1.1910    0.8590 c3        1 MOL      0.565580
    144 C47         7.2310   -1.8900   -0.4740 c         1 MOL      0.223301
    145 O19         6.5910   -1.2860   -1.3430 o         1 MOL     -0.367432
    146 C48         6.4670   -1.4800    1.8950 c3        1 MOL     -0.354765
    147 H67         6.8380    0.7480    0.4580 hn        1 MOL      0.034136
    148 H68         8.5200   -1.6410    1.1470 h1        1 MOL     -0.030385
    149 H69         6.8110   -0.9250    2.7770 hc        1 MOL      0.098683
    150 H70         5.4820   -1.1740    1.5450 hc        1 MOL      0.098683
    151 H71         6.5150   -2.5580    2.0600 hc        1 MOL      0.098683
    152 N14         7.4390   -3.1990   -0.5720 n         1 MOL     -0.445751
    153 C49         7.0890   -3.9640   -1.7690 c3        1 MOL     -0.004468
    154 C50         7.7220   -3.5030   -3.1090 c         1 MOL      0.391251
    155 O20         7.1460   -3.7000   -4.2210 o         1 MOL     -0.488371
    156 C51         5.5310   -4.1880   -1.9580 c3        1 MOL     -0.090044
    157 C52         4.7940   -4.3900   -0.6510 c3        1 MOL      0.074537
    158 C53         3.3160   -4.7490   -0.8480 c         1 MOL      0.565027
    159 O21         2.4650   -3.8260   -0.8390 o         1 MOL     -0.641458
    160 O22         3.0270   -5.9730   -0.7210 o         1 MOL     -0.641458
    161 H72         8.0110   -3.7110    0.0850 hn        1 MOL      0.313814
    162 H73         7.5210   -4.9530   -1.6560 h1        1 MOL      0.100522
    163 H74         5.3090   -5.0220   -2.6250 hc        1 MOL      0.050220
    164 H75         5.0960   -3.3110   -2.4470 hc        1 MOL      0.050220
    165 H76         4.8510   -3.5200   -0.0060 hc        1 MOL     -0.021766
    166 H77         5.2840   -5.1950   -0.1090 hc        1 MOL     -0.021766
    167 N15         8.8660   -2.8140   -3.1340 n         1 MOL     -0.327318
    168 C54         9.4170   -1.9950   -4.1840 c3        1 MOL      0.028226
    169 H78         9.4270   -0.9530   -3.8630 h1        1 MOL      0.045180
    170 H79        10.4350   -2.3180   -4.4000 h1        1 MOL      0.045180
    171 H80         8.8070   -2.0940   -5.0810 h1        1 MOL      0.045180
    172 H81         9.3210   -2.6310   -2.2470 hn        1 MOL      0.241665
    173 Ca1         1.3490   -1.5640   -0.6150 Ca        1 MOL      1.717835
    174 O23         0.3640   -3.9610   -2.4700 oh        1 MOL     -0.803531
    175 H82         0.2470   -4.0570   -3.4120 ho        1 MOL      0.380722
    176 H83         1.2750   -4.2200   -2.3070 ho        1 MOL      0.380722
    177 O24         2.3880   -1.6400   -3.2060 oh        1 MOL     -0.803531
    178 H84         2.5680   -0.9510   -3.8520 ho        1 MOL      0.380722
    179 H85         2.3800   -2.4550   -3.7140 ho        1 MOL      0.380722
    180 O25         3.8640   -0.8940   -0.8070 oh        1 MOL     -0.803531
    181 H86         4.5700   -0.9420   -1.4590 ho        1 MOL      0.380722
    182 H87         4.2630   -0.4620   -0.0520 ho        1 MOL      0.380722
    183 O26         0.1570    0.1140   -3.1910 oh        1 MOL     -0.803531
    184 H88        -0.4830   -0.5810   -3.3050 ho        1 MOL      0.380722
    185 H89         0.1570    0.5880   -4.0260 ho        1 MOL      0.380722
    186 O27         0.1350   -3.7480    0.3370 oh        1 MOL     -0.803531
    187 H90         0.7920   -4.3240   -0.0510 ho        1 MOL      0.380722
    188 H91        -0.7120   -4.1250    0.0640 ho        1 MOL      0.380722
@<TRIPOS>BOND
     1    1    2 1   
     2    1    4 1   
     3    1    5 1   
     4    1    6 1   
     5    2    3 2   
     6    2    7 1   
     7    7    8 1   
     8    7   15 1   
     9    8    9 1   
    10    8   11 1   
    11    8   16 1   
    12    9   10 2   
    13    9   19 1   
    14   11   12 1   
    15   11   17 1   
    16   11   18 1   
    17   12   13 1   
    18   12   14 1   
    19   19   20 1   
    20   19   28 1   
    21   20   21 1   
    22   20   23 1   
    23   20   29 1   
    24   21   22 2   
    25   21   41 1   
    26   23   24 1   
    27   23   30 1   
    28   23   31 1   
    29   24   25 1   
    30   24   32 1   
    31   24   33 1   
    32   25   26 1   
    33   25   34 1   
    34   25   35 1   
    35   26   27 1   
    36   26   36 1   
    37   26   37 1   
    38   27   38 1   
    39   27   39 1   
    40   27   40 1   
    41   41   42 1   
    42   41   49 1   
    43   42   43 1   
    44   42   45 1   
    45   42   50 1   
    46   43   44 2   
    47   43   53 1   
    48   45   46 1   
    49   45   51 1   
    50   45   52 1   
    51   46   47 1   
    52   46   48 1   
    53   53   54 1   
    54   53   57 1   
    55   54   55 1   
    56   54   58 1   
    57   54   59 1   
    58   55   56 2   
    59   55   60 1   
    60   60   61 1   
    61   60   68 1   
    62   61   62 1   
    63   61   64 1   
    64   61   69 1   
    65   62   63 2   
    66   62   74 1   
    67   64   65 1   
    68   64   70 1   
    69   64   71 1   
    70   65   66 1   
    71   65   67 2   
    72   66   72 1   
    73   66   73 1   
    74   74   75 1   
    75   74   78 1   
    76   75   76 1   
    77   75   79 1   
    78   75   80 1   
    79   76   77 2   
    80   76   81 1   
    81   81   82 1   
    82   81   93 1   
    83   82   83 1   
    84   82   85 1   
    85   82   94 1   
    86   83   84 2   
    87   83  102 1   
    88   85   86 1   
    89   85   95 1   
    90   85   96 1   
    91   86   87 ar  
    92   86   88 ar  
    93   87   89 ar  
    94   87   97 1   
    95   88   90 ar  
    96   88   98 1   
    97   89   91 ar  
    98   89   99 1   
    99   90   91 ar  
   100   90  100 1   
   101   91   92 1   
   102   92  101 1   
   103  102  103 1   
   104  102  110 1   
   105  103  104 1   
   106  103  106 1   
   107  103  111 1   
   108  104  105 2   
   109  104  121 1   
   110  106  107 1   
   111  106  108 1   
   112  106  112 1   
   113  107  109 1   
   114  107  113 1   
   115  107  114 1   
   116  108  115 1   
   117  108  116 1   
   118  108  117 1   
   119  109  118 1   
   120  109  119 1   
   121  109  120 1   
   122  121  122 1   
   123  121  127 1   
   124  122  123 1   
   125  122  125 1   
   126  122  128 1   
   127  123  124 2   
   128  123  132 1   
   129  125  126 1   
   130  125  129 1   
   131  125  130 1   
   132  126  131 1   
   133  132  133 1   
   134  132  137 1   
   135  133  134 1   
   136  133  136 1   
   137  133  138 1   
   138  134  135 2   
   139  134  142 1   
   140  136  139 1   
   141  136  140 1   
   142  136  141 1   
   143  142  143 1   
   144  142  147 1   
   145  143  144 1   
   146  143  146 1   
   147  143  148 1   
   148  144  145 2   
   149  144  152 1   
   150  146  149 1   
   151  146  150 1   
   152  146  151 1   
   153  152  153 1   
   154  152  161 1   
   155  153  154 1   
   156  153  156 1   
   157  153  162 1   
   158  154  155 2   
   159  154  167 1   
   160  156  157 1   
   161  156  163 1   
   162  156  164 1   
   163  157  158 1   
   164  157  165 1   
   165  157  166 1   
   166  158  159 1   
   167  158  160 1   
   168  167  168 1   
   169  167  172 1   
   170  168  169 1   
   171  168  170 1   
   172  168  171 1   
   173  174  175 1   
   174  174  176 1   
   175  177  178 1   
   176  177  179 1   
   177  180  181 1   
   178  180  182 1   
   179  183  184 1   
   180  183  185 1   
   181  186  187 1   
   182  186  188 1   
@<TRIPOS>SUBSTRUCTURE
     1 MOL         1 TEMP              0 ****  ****    0 ROOT
