@<TRIPOS>MOLECULE
MOL
  184   179     1     0     0
SMALL
resp


@<TRIPOS>ATOM
      1 C1          4.6090   -6.4880    3.4010 c3        1 MOL     -0.308977
      2 C2          4.7140   -5.1230    2.6990 c         1 MOL      0.681566
      3 O1          4.2380   -4.1790    3.2920 o         1 MOL     -0.544013
      4 H1          5.3140   -6.5230    4.2320 hc        1 MOL      0.059121
      5 H2          3.5950   -6.6260    3.7780 hc        1 MOL      0.059121
      6 H3          4.8440   -7.2810    2.6920 hc        1 MOL      0.059121
      7 N1          5.3170   -4.9680    1.5490 n         1 MOL     -0.366981
      8 C3          6.1440   -5.8550    0.7720 c3        1 MOL      0.060298
      9 C4          5.8520   -5.6500   -0.7100 c         1 MOL      0.392111
     10 O2          4.7360   -5.3910   -1.1740 o         1 MOL     -0.455816
     11 C5          7.6190   -5.5720    1.2800 c3        1 MOL     -0.335304
     12 C6          8.0050   -4.1330    1.2320 c         1 MOL      0.714145
     13 O3          8.2750   -3.6480    0.1050 o         1 MOL     -0.649468
     14 O4          8.1340   -3.4130    2.2340 o         1 MOL     -0.649468
     15 H4          5.1930   -4.0480    1.1450 hn        1 MOL      0.223703
     16 H5          5.8500   -6.8930    0.9510 h1        1 MOL      0.099434
     17 H6          8.2800   -6.2110    0.6950 hc        1 MOL      0.062201
     18 H7          7.7850   -5.8510    2.3280 hc        1 MOL      0.062201
     19 N2          6.8660   -5.7370   -1.6060 n         1 MOL     -0.544334
     20 C7          6.7610   -5.3600   -3.0190 c3        1 MOL      0.570397
     21 C8          6.3290   -3.8810   -3.2220 c         1 MOL      0.141622
     22 O5          5.7750   -3.4910   -4.2440 o         1 MOL     -0.512981
     23 C9          6.0240   -6.4000   -3.8190 c3        1 MOL     -0.293368
     24 H8          7.7600   -6.0780   -1.2860 hn        1 MOL      0.268437
     25 H9          7.7560   -5.4020   -3.4750 h1        1 MOL     -0.053623
     26 H10         6.1180   -6.1310   -4.8710 hc        1 MOL      0.064274
     27 H11         6.5340   -7.3600   -3.6940 hc        1 MOL      0.064274
     28 H12         4.9470   -6.4940   -3.6680 hc        1 MOL      0.064274
     29 N3          6.4710   -3.0370   -2.1510 n         1 MOL      0.265576
     30 C10         5.9960   -1.6150   -2.1830 c3        1 MOL      0.050040
     31 C11         7.0150   -0.5080   -2.1050 c         1 MOL      0.105074
     32 O6          8.1070   -0.5510   -1.4610 o         1 MOL     -0.427038
     33 C12         4.9600   -1.3310   -1.1180 c3        1 MOL     -0.288085
     34 C13         5.3480   -1.7490    0.3240 c         1 MOL      0.750867
     35 O7          6.4560   -1.4240    0.7210 o         1 MOL     -0.648761
     36 O8          4.4460   -2.2800    1.0060 o         1 MOL     -0.648761
     37 H13         7.1180   -3.2900   -1.4250 hn        1 MOL     -0.166878
     38 H14         5.5620   -1.4990   -3.1760 h1        1 MOL      0.067078
     39 H15         4.1910   -2.0000   -1.5050 hc        1 MOL      0.086315
     40 H16         4.6900   -0.2820   -1.0450 hc        1 MOL      0.086315
     41 N4          6.7030    0.5910   -2.6740 n         1 MOL     -0.186895
     42 C14         7.4010    1.9210   -2.5810 c3        1 MOL      0.120393
     43 C15         6.6940    2.9240   -1.6010 c         1 MOL      0.344880
     44 O9          6.2440    2.5250   -0.5460 o         1 MOL     -0.383622
     45 H17         5.9160    0.5130   -3.3060 hn        1 MOL      0.250134
     46 H18         7.5220    2.4060   -3.5580 h1        1 MOL      0.015420
     47 H19         8.3860    1.8550   -2.1350 h1        1 MOL      0.015420
     48 N5          6.6890    4.2310   -1.8770 n         1 MOL     -0.333375
     49 C16         6.1570    5.2450   -0.8960 c3        1 MOL     -0.029915
     50 C17         4.7220    5.1440   -0.6580 c         1 MOL      0.611261
     51 O10         4.0050    4.4140   -1.3390 o         1 MOL     -0.468669
     52 C18         6.3440    6.5890   -1.6400 c3        1 MOL     -0.354429
     53 C19         7.7610    7.0420   -1.7620 c         1 MOL      0.685871
     54 N6          8.3590    7.3720   -0.6140 n         1 MOL     -0.761074
     55 O11         8.3910    7.0380   -2.7730 o         1 MOL     -0.552294
     56 H20         6.9860    4.6310   -2.7580 hn        1 MOL      0.275636
     57 H21         6.7920    5.1430   -0.0180 h1        1 MOL      0.056536
     58 H22         5.9540    7.3790   -0.9910 hc        1 MOL      0.128416
     59 H23         5.9300    6.6020   -2.6450 hc        1 MOL      0.128416
     60 H24         7.7420    7.7140    0.1100 hn        1 MOL      0.345267
     61 H25         9.3230    7.6600   -0.6990 hn        1 MOL      0.345267
     62 N7          4.3000    5.6160    0.5010 n         1 MOL     -0.560871
     63 C20         2.9150    5.4840    0.9450 c3        1 MOL     -0.021871
     64 C21         1.8760    6.1560    0.0700 c         1 MOL      0.585816
     65 O12         2.2290    6.8960   -0.8160 o         1 MOL     -0.575295
     66 H26         4.9980    6.1270    1.0340 hn        1 MOL      0.319118
     67 H27         2.8690    5.7870    1.9830 h1        1 MOL      0.102558
     68 H28         2.7600    4.4000    0.8970 h1        1 MOL      0.102558
     69 N8          0.5720    5.9580    0.1690 n         1 MOL     -0.478992
     70 C22        -0.1030    5.1470    1.2110 c3        1 MOL     -0.129968
     71 C23        -1.3320    4.3070    0.6800 c         1 MOL      0.549304
     72 O13        -2.0780    4.8200   -0.1910 o         1 MOL     -0.549162
     73 C24        -0.6610    6.1390    2.2230 c3        1 MOL      0.416812
     74 C25        -1.3020    5.4870    3.4310 c3        1 MOL     -0.454605
     75 O14         0.3550    6.8580    2.8240 oh        1 MOL     -0.615095
     76 H29        -0.0180    6.3140   -0.5750 hn        1 MOL      0.312700
     77 H30         0.6920    4.6340    1.7420 h1        1 MOL      0.079891
     78 H31        -1.3540    6.8440    1.7660 h1        1 MOL      0.007954
     79 H32         0.3420    7.7310    2.4320 ho        1 MOL      0.362822
     80 H33        -1.8510    6.2660    3.9650 hc        1 MOL      0.127686
     81 H34        -2.1140    4.8090    3.1680 hc        1 MOL      0.127686
     82 H35        -0.5660    4.9630    4.0380 hc        1 MOL      0.127686
     83 N9         -1.5540    3.1350    1.2130 n         1 MOL     -0.264775
     84 C26        -2.6030    2.2030    0.6850 c3        1 MOL     -0.223575
     85 C27        -3.5800    1.5470    1.7270 c         1 MOL      0.412994
     86 O15        -3.2560    1.3530    2.8990 o         1 MOL     -0.571845
     87 C28        -1.9380    1.0450   -0.1280 c3        1 MOL      0.189847
     88 C29        -1.3150   -0.0210    0.8500 c3        1 MOL      0.021581
     89 C30        -0.7860    1.5250   -1.1050 c3        1 MOL     -0.324824
     90 C31        -0.5530   -1.1400    0.2250 c3        1 MOL     -0.112719
     91 H36        -0.9870    2.8180    1.9940 hn        1 MOL      0.235301
     92 H37        -3.2020    2.8280    0.0290 h1        1 MOL      0.161883
     93 H38        -2.7860    0.5880   -0.6500 hc        1 MOL      0.036824
     94 H39        -2.2000   -0.5180    1.2320 hc        1 MOL      0.005007
     95 H40        -0.6800    0.3550    1.6370 hc        1 MOL      0.005007
     96 H41        -0.4450    0.6780   -1.6950 hc        1 MOL      0.073390
     97 H42        -1.2100    2.2710   -1.7780 hc        1 MOL      0.073390
     98 H43         0.0240    2.0130   -0.5650 hc        1 MOL      0.073390
     99 H44         0.3250   -0.6840   -0.2510 hc        1 MOL      0.029352
    100 H45        -0.2250   -1.8910    0.9340 hc        1 MOL      0.029352
    101 H46        -1.0860   -1.5790   -0.6250 hc        1 MOL      0.029352
    102 N10        -4.8280    1.2730    1.4290 n         1 MOL     -0.095833
    103 C32        -5.6370    1.5780    0.1690 c3        1 MOL     -0.040054
    104 C33        -6.9100    0.7960    0.3340 c         1 MOL      0.365938
    105 O16        -7.2830    0.4400    1.4250 o         1 MOL     -0.443660
    106 C34        -5.9910    3.0520    0.0870 c3        1 MOL      0.010899
    107 C35        -6.4670    3.7900    1.3280 c         1 MOL      0.601700
    108 O17        -5.6310    4.1760    2.1900 o         1 MOL     -0.657111
    109 O18        -7.6910    3.9080    1.5620 o         1 MOL     -0.657111
    110 H47        -5.4210    0.7770    2.0700 hn        1 MOL      0.209034
    111 H48        -5.1970    1.2600   -0.7810 h1        1 MOL      0.055383
    112 H49        -6.7410    3.0880   -0.7070 hc        1 MOL     -0.034785
    113 H50        -5.1460    3.6350   -0.2920 hc        1 MOL     -0.034785
    114 N11        -7.7440    0.7410   -0.6970 n         1 MOL     -0.295476
    115 C36        -9.1870    0.4120   -0.6500 c3        1 MOL      0.308496
    116 C37        -9.5650   -0.5580   -1.8200 c         1 MOL      0.236946
    117 O19        -9.2050   -0.3440   -2.9680 o         1 MOL     -0.507262
    118 C38       -10.0020    1.7170   -0.6550 c3        1 MOL     -0.244355
    119 C39       -11.5490    1.5090   -0.8130 ca        1 MOL      0.081818
    120 C40       -12.0720    1.8870   -2.0770 ca        1 MOL     -0.085357
    121 C41       -12.3050    1.1060    0.2850 ca        1 MOL     -0.085357
    122 C42       -13.4770    1.8460   -2.2340 ca        1 MOL     -0.166452
    123 C43       -13.6900    1.0890    0.1460 ca        1 MOL     -0.166452
    124 C44       -14.2790    1.4200   -1.1280 ca        1 MOL     -0.131040
    125 H51        -7.2900    0.9520   -1.5770 hn        1 MOL      0.252749
    126 H52        -9.4320   -0.0770    0.2910 h1        1 MOL      0.038788
    127 H53        -9.5990    2.4860   -1.3060 hc        1 MOL      0.078551
    128 H54        -9.8040    2.1300    0.3300 hc        1 MOL      0.078551
    129 H55       -11.5290    2.3010   -2.9150 ha        1 MOL      0.119723
    130 H56       -11.8020    0.7610    1.1780 ha        1 MOL      0.119723
    131 H57       -13.9230    2.1420   -3.1710 ha        1 MOL      0.111473
    132 H58       -14.3290    0.7600    0.9550 ha        1 MOL      0.111473
    133 H59       -15.3610    1.4300   -1.1760 ha        1 MOL      0.092885
    134 N12       -10.3100   -1.6460   -1.5770 n         1 MOL     -0.068386
    135 C45       -10.7740   -2.2380   -0.3160 c3        1 MOL      0.062604
    136 C46        -9.6820   -2.5810    0.5980 c         1 MOL      0.482388
    137 O20        -9.6350   -1.9680    1.6740 o         1 MOL     -0.564209
    138 C47       -11.5720   -3.4730   -0.7560 c3        1 MOL      0.016536
    139 C48       -11.9730   -3.2090   -2.2340 c3        1 MOL     -0.065191
    140 C49       -10.7440   -2.4890   -2.7480 c3        1 MOL     -0.065180
    141 H60       -11.4260   -1.5780    0.2510 h1        1 MOL      0.028744
    142 H61       -10.9880   -4.3910   -0.6930 hc        1 MOL      0.003816
    143 H62       -12.4220   -3.6160   -0.1030 hc        1 MOL      0.003816
    144 H63       -12.1560   -4.1730   -2.7160 hc        1 MOL      0.024797
    145 H64       -12.8370   -2.5480   -2.2700 hc        1 MOL      0.024797
    146 H65        -9.9530   -3.1910   -3.0240 h1        1 MOL      0.075534
    147 H66       -11.0100   -1.8740   -3.6120 h1        1 MOL      0.075534
    148 N13        -8.7770   -3.4280    0.3070 n         1 MOL     -0.540393
    149 C50        -7.3910   -3.4750    0.7670 c3        1 MOL      0.303443
    150 C51        -7.1020   -4.9250    1.1980 c         1 MOL      0.339008
    151 O21        -6.7850   -5.7720    0.4110 o         1 MOL     -0.536332
    152 C52        -6.5150   -3.0380   -0.4660 c3        1 MOL      0.051842
    153 C53        -5.0710   -2.8720    0.0560 c3        1 MOL     -0.062222
    154 C54        -4.0860   -2.6860   -1.0270 c         1 MOL      0.767562
    155 O22        -3.8290   -1.5350   -1.3850 o         1 MOL     -0.703281
    156 O23        -3.6170   -3.6760   -1.6220 o         1 MOL     -0.703281
    157 H67        -8.8460   -3.8090   -0.6260 hn        1 MOL      0.293069
    158 H68        -7.1450   -2.7280    1.5270 h1        1 MOL      0.071916
    159 H69        -6.8360   -2.0610   -0.8320 hc        1 MOL     -0.028130
    160 H70        -6.5790   -3.7520   -1.2790 hc        1 MOL     -0.028130
    161 H71        -4.7480   -3.7010    0.6750 hc        1 MOL     -0.033984
    162 H72        -5.0940   -2.0050    0.7140 hc        1 MOL     -0.033984
    163 N14        -7.2820   -5.3350    2.4360 n         1 MOL     -0.259280
    164 C55        -7.6120   -4.5820    3.6290 c3        1 MOL     -0.131908
    165 H73        -8.6960   -4.5360    3.7410 h1        1 MOL      0.069508
    166 H74        -7.1790   -5.0730    4.5010 h1        1 MOL      0.069508
    167 H75        -7.2130   -3.5720    3.5450 h1        1 MOL      0.069508
    168 H76        -7.1060   -6.3220    2.5360 hn        1 MOL      0.253828
    169 Ca1         8.9600   -1.0610    0.9420 Ca        1 MOL      1.634702
    170 O24        11.2200    0.3340    1.9190 oh        1 MOL     -0.805415
    171 H77        11.8100   -0.2240    2.4260 ho        1 MOL      0.376745
    172 H78        11.0440    1.0800    2.4940 ho        1 MOL      0.376745
    173 O25        10.8640   -0.7120   -0.7650 oh        1 MOL     -0.805415
    174 H79        10.8310   -0.5050   -1.6980 ho        1 MOL      0.376745
    175 H80        11.7840   -0.5770   -0.5220 ho        1 MOL      0.376745
    176 O26         8.7660   -0.4040    3.7360 oh        1 MOL     -0.805415
    177 H81         9.1470    0.4290    4.0110 ho        1 MOL      0.376745
    178 H82         8.5660   -0.8530    4.5570 ho        1 MOL      0.376745
    179 O27        10.8840   -2.8860    1.8270 oh        1 MOL     -0.805415
    180 H83        11.3020   -2.9980    2.6820 ho        1 MOL      0.376745
    181 H84        10.4460   -3.7300    1.6650 ho        1 MOL      0.376745
    182 O28         7.9540    1.3420    1.0310 oh        1 MOL     -0.805415
    183 H85         7.1480    1.5620    0.5550 ho        1 MOL      0.376745
    184 H86         8.6220    1.9140    0.6510 ho        1 MOL      0.376745
@<TRIPOS>BOND
     1    1    2 1   
     2    1    4 1   
     3    1    5 1   
     4    1    6 1   
     5    2    3 2   
     6    2    7 1   
     7    7    8 1   
     8    7   15 1   
     9    8    9 1   
    10    8   11 1   
    11    8   16 1   
    12    9   10 2   
    13    9   19 1   
    14   11   12 1   
    15   11   17 1   
    16   11   18 1   
    17   12   13 1   
    18   12   14 1   
    19   19   20 1   
    20   19   24 1   
    21   20   21 1   
    22   20   23 1   
    23   20   25 1   
    24   21   22 2   
    25   21   29 1   
    26   23   26 1   
    27   23   27 1   
    28   23   28 1   
    29   29   30 1   
    30   29   37 1   
    31   30   31 1   
    32   30   33 1   
    33   30   38 1   
    34   31   32 2   
    35   31   41 1   
    36   33   34 1   
    37   33   39 1   
    38   33   40 1   
    39   34   35 1   
    40   34   36 1   
    41   41   42 1   
    42   41   45 1   
    43   42   43 1   
    44   42   46 1   
    45   42   47 1   
    46   43   44 2   
    47   43   48 1   
    48   48   49 1   
    49   48   56 1   
    50   49   50 1   
    51   49   52 1   
    52   49   57 1   
    53   50   51 2   
    54   50   62 1   
    55   52   53 1   
    56   52   58 1   
    57   52   59 1   
    58   53   54 1   
    59   53   55 2   
    60   54   60 1   
    61   54   61 1   
    62   62   63 1   
    63   62   66 1   
    64   63   64 1   
    65   63   67 1   
    66   63   68 1   
    67   64   65 2   
    68   64   69 1   
    69   69   70 1   
    70   69   76 1   
    71   70   71 1   
    72   70   73 1   
    73   70   77 1   
    74   71   72 2   
    75   71   83 1   
    76   73   74 1   
    77   73   75 1   
    78   73   78 1   
    79   74   80 1   
    80   74   81 1   
    81   74   82 1   
    82   75   79 1   
    83   83   84 1   
    84   83   91 1   
    85   84   85 1   
    86   84   87 1   
    87   84   92 1   
    88   85   86 2   
    89   85  102 1   
    90   87   88 1   
    91   87   89 1   
    92   87   93 1   
    93   88   90 1   
    94   88   94 1   
    95   88   95 1   
    96   89   96 1   
    97   89   97 1   
    98   89   98 1   
    99   90   99 1   
   100   90  100 1   
   101   90  101 1   
   102  102  103 1   
   103  102  110 1   
   104  103  104 1   
   105  103  106 1   
   106  103  111 1   
   107  104  105 2   
   108  104  114 1   
   109  106  107 1   
   110  106  112 1   
   111  106  113 1   
   112  107  108 1   
   113  107  109 1   
   114  114  115 1   
   115  114  125 1   
   116  115  116 1   
   117  115  118 1   
   118  115  126 1   
   119  116  117 2   
   120  116  134 1   
   121  118  119 1   
   122  118  127 1   
   123  118  128 1   
   124  119  120 ar  
   125  119  121 ar  
   126  120  122 ar  
   127  120  129 1   
   128  121  123 ar  
   129  121  130 1   
   130  122  124 ar  
   131  122  131 1   
   132  123  124 ar  
   133  123  132 1   
   134  124  133 1   
   135  134  135 1   
   136  134  140 1   
   137  135  136 1   
   138  135  138 1   
   139  135  141 1   
   140  136  137 2   
   141  136  148 1   
   142  138  139 1   
   143  138  142 1   
   144  138  143 1   
   145  139  140 1   
   146  139  144 1   
   147  139  145 1   
   148  140  146 1   
   149  140  147 1   
   150  148  149 1   
   151  148  157 1   
   152  149  150 1   
   153  149  152 1   
   154  149  158 1   
   155  150  151 2   
   156  150  163 1   
   157  152  153 1   
   158  152  159 1   
   159  152  160 1   
   160  153  154 1   
   161  153  161 1   
   162  153  162 1   
   163  154  155 1   
   164  154  156 1   
   165  163  164 1   
   166  163  168 1   
   167  164  165 1   
   168  164  166 1   
   169  164  167 1   
   170  170  171 1   
   171  170  172 1   
   172  173  174 1   
   173  173  175 1   
   174  176  177 1   
   175  176  178 1   
   176  179  180 1   
   177  179  181 1   
   178  182  183 1   
   179  182  184 1   
@<TRIPOS>SUBSTRUCTURE
     1 MOL         1 TEMP              0 ****  ****    0 ROOT
