@<TRIPOS>MOLECULE
MOL
  189   185     1     0     0
SMALL
resp


@<TRIPOS>ATOM
      1 C1          4.5950    4.6600   -2.9730 c3        1 MOL     -0.398195
      2 C2          5.3810    3.6940   -2.0060 c         1 MOL      0.809227
      3 O1          4.8680    3.3530   -0.9340 o         1 MOL     -0.701224
      4 H1          3.7160    4.1470   -3.3620 hc        1 MOL      0.101768
      5 H2          4.2820    5.5480   -2.4250 hc        1 MOL      0.101768
      6 H3          5.2410    4.9520   -3.8010 hc        1 MOL      0.101768
      7 N1          6.5790    3.2490   -2.4320 n         1 MOL     -0.683979
      8 C3          7.2040    1.9670   -1.9790 c3        1 MOL      0.362456
      9 C4          6.1050    0.8650   -1.7970 c         1 MOL      0.259464
     10 O2          5.6830    0.4750   -0.7050 o         1 MOL     -0.522602
     11 C5          8.0820    2.1190   -0.7220 c3        1 MOL     -0.218294
     12 C6          7.6570    3.1720    0.3000 c         1 MOL      0.759299
     13 O3          6.9730    2.8200    1.3020 o         1 MOL     -0.730797
     14 O4          8.1390    4.3560    0.2700 o         1 MOL     -0.730797
     15 H4          6.9140    3.6930   -3.2680 hn        1 MOL      0.323357
     16 H5          7.8970    1.6290   -2.7430 h1        1 MOL      0.019246
     17 H6          9.0990    2.2470   -1.1140 hc        1 MOL      0.035503
     18 H7          8.1190    1.1840   -0.1720 hc        1 MOL      0.035503
     19 N2          5.6290    0.4690   -2.9760 n         1 MOL     -0.446561
     20 C7          4.6650   -0.6640   -3.1650 c3        1 MOL      0.268383
     21 C8          5.3280   -2.0610   -2.7070 c         1 MOL      0.246777
     22 O5          5.7130   -2.8350   -3.5570 o         1 MOL     -0.547007
     23 C9          3.3310   -0.4630   -2.4940 c3        1 MOL      0.264187
     24 C10         2.3230   -1.5700   -2.7340 c3        1 MOL     -0.293961
     25 C11         2.7190    0.8320   -3.0020 c3        1 MOL     -0.393145
     26 C12         2.1050   -2.1400   -4.1390 c3        1 MOL     -0.253802
     27 H8          5.9470    0.9690   -3.8030 hn        1 MOL      0.262309
     28 H9          4.4400   -0.7910   -4.2230 h1        1 MOL     -0.015167
     29 H10         3.4410   -0.4100   -1.4100 hc        1 MOL     -0.097061
     30 H11         1.3190   -1.2820   -2.4200 hc        1 MOL      0.090517
     31 H12         2.7180   -2.3800   -2.1080 hc        1 MOL      0.090517
     32 H13         1.6330    0.8680   -2.9140 hc        1 MOL      0.089771
     33 H14         3.2560    1.5840   -2.4300 hc        1 MOL      0.089771
     34 H15         3.0180    1.0220   -4.0350 hc        1 MOL      0.089771
     35 H16         1.2870   -2.8710   -4.1900 hc        1 MOL      0.070139
     36 H17         1.8460   -1.3450   -4.8350 hc        1 MOL      0.070139
     37 H18         3.0590   -2.5780   -4.4320 hc        1 MOL      0.070139
     38 N3          5.5990   -2.2310   -1.4310 n         1 MOL      0.090259
     39 C13         6.5510   -3.2120   -0.8520 c3        1 MOL     -0.002156
     40 C14         5.9710   -4.6560   -0.6570 c         1 MOL      0.542551
     41 O6          6.7930   -5.5760   -0.7530 o         1 MOL     -0.497939
     42 C15         7.1750   -2.6380    0.4280 c3        1 MOL     -0.261669
     43 C16         8.4270   -3.4360    0.7800 c         1 MOL      0.705592
     44 O7          8.5090   -4.1150    1.8800 o         1 MOL     -0.723925
     45 O8          9.4370   -3.2370    0.0640 o         1 MOL     -0.723925
     46 H19         5.4030   -1.4520   -0.8080 hn        1 MOL      0.199146
     47 H20         7.3490   -3.3510   -1.5790 h1        1 MOL      0.037111
     48 H21         6.4630   -2.6720    1.2460 hc        1 MOL      0.056807
     49 H22         7.3490   -1.5620    0.3140 hc        1 MOL      0.056807
     50 N4          4.6690   -4.9300   -0.3040 n         1 MOL     -0.701756
     51 C17         3.7420   -4.0070    0.4000 c3        1 MOL      0.466165
     52 C18         4.1030   -3.9450    1.9020 c         1 MOL      0.296837
     53 O9          4.9980   -4.7160    2.3820 o         1 MOL     -0.473386
     54 H23         4.3980   -5.8820   -0.4840 hn        1 MOL      0.323950
     55 H24         2.7690   -4.4930    0.4140 h1        1 MOL     -0.043951
     56 H25         3.6790   -2.9880    0.0070 h1        1 MOL     -0.043951
     57 N5          3.4220   -3.1260    2.7160 n         1 MOL     -0.381925
     58 C19         2.2510   -2.3360    2.4070 c3        1 MOL     -0.018558
     59 C20         2.5230   -1.0750    1.5220 c         1 MOL      0.108259
     60 O10         3.6440   -0.6250    1.5310 o         1 MOL     -0.296197
     61 C21         1.6610   -1.8950    3.8010 c3        1 MOL     -0.392866
     62 C22         2.6400   -1.2430    4.7610 c         1 MOL      0.850348
     63 O11         3.6190   -1.8520    5.2260 o         1 MOL     -0.716264
     64 O12         2.3060   -0.1240    5.1630 o         1 MOL     -0.716264
     65 H26         3.7740   -3.0080    3.6580 hn        1 MOL      0.308996
     66 H27         1.5390   -3.0060    1.9130 h1        1 MOL      0.088146
     67 H28         1.2000   -2.7240    4.3300 hc        1 MOL      0.105039
     68 H29         0.8680   -1.1620    3.6240 hc        1 MOL      0.105039
     69 N6          1.5480   -0.6440    0.6820 n         1 MOL      0.224453
     70 C23         0.0950   -1.0440    0.7730 c3        1 MOL     -0.061863
     71 C24        -0.2650   -2.3580    0.0060 c         1 MOL      0.541239
     72 O13         0.5530   -2.9550   -0.7380 o         1 MOL     -0.552181
     73 H30         1.7260    0.2570    0.2590 hn        1 MOL     -0.098992
     74 H31        -0.5040   -0.3000    0.2570 h1        1 MOL      0.029178
     75 H32        -0.1200   -1.0640    1.8420 h1        1 MOL      0.029178
     76 N7         -1.4970   -2.7830    0.0950 n         1 MOL     -0.405890
     77 C25        -2.0970   -3.9130   -0.4780 c3        1 MOL      0.038364
     78 C26        -3.0980   -3.6810   -1.7280 c         1 MOL      0.345702
     79 O14        -3.2950   -4.6100   -2.5000 o         1 MOL     -0.531513
     80 C27        -2.7430   -4.7440    0.6070 c3        1 MOL     -0.034343
     81 C28        -3.9440   -4.1640    1.4080 c3        1 MOL     -0.598476
     82 C29        -5.1490   -3.8300    0.5490 c         1 MOL      0.690865
     83 N8         -5.9390   -4.8270    0.3050 n         1 MOL     -0.744385
     84 O15        -5.4870   -2.7180    0.2330 o         1 MOL     -0.577422
     85 H33        -2.0230   -2.1790    0.7150 hn        1 MOL      0.281753
     86 H34        -1.3230   -4.5990   -0.8220 h1        1 MOL      0.119615
     87 H35        -1.9210   -5.1250    1.2100 hc        1 MOL      0.050826
     88 H36        -3.1980   -5.6160    0.1520 hc        1 MOL      0.050826
     89 H37        -3.5280   -3.2510    1.8280 hc        1 MOL      0.203972
     90 H38        -4.1460   -4.9380    2.1450 hc        1 MOL      0.203972
     91 H39        -5.6610   -5.7310    0.6720 hn        1 MOL      0.366283
     92 H40        -6.8110   -4.6610   -0.1870 hn        1 MOL      0.366283
     93 N9         -3.4260   -2.4370   -2.0270 n         1 MOL      0.032775
     94 C30        -3.8860   -2.0170   -3.3190 c3        1 MOL     -0.210125
     95 C31        -5.3960   -1.5180   -3.3470 c         1 MOL      0.453621
     96 O16        -5.8380   -1.1290   -4.4170 o         1 MOL     -0.517132
     97 C32        -2.9950   -0.9340   -3.8580 c3        1 MOL      0.255086
     98 C33        -1.5900   -1.4730   -4.1450 c3        1 MOL     -0.138695
     99 C34        -2.8340    0.3530   -3.0230 c3        1 MOL     -0.138695
    100 H41        -3.2940   -1.7840   -1.2610 hn        1 MOL      0.162596
    101 H42        -3.8450   -2.8480   -4.0120 h1        1 MOL      0.127825
    102 H43        -3.5300   -0.6610   -4.7730 hc        1 MOL     -0.039820
    103 H44        -1.0380   -0.7560   -4.7520 hc        1 MOL      0.023022
    104 H45        -1.1120   -1.6750   -3.1780 hc        1 MOL      0.023022
    105 H46        -1.6110   -2.3500   -4.7850 hc        1 MOL      0.023022
    106 H47        -3.8380    0.6600   -2.7150 hc        1 MOL      0.023022
    107 H48        -2.3440   -0.0320   -2.1290 hc        1 MOL      0.023022
    108 H49        -2.3400    1.1800   -3.5250 hc        1 MOL      0.023022
    109 N10        -6.2300   -1.5800   -2.2730 n         1 MOL     -0.282305
    110 C35        -7.5470   -0.8480   -2.2270 c3        1 MOL     -0.081412
    111 C36        -7.3890    0.5630   -1.5240 c         1 MOL      0.636663
    112 O17        -8.2820    1.3960   -1.5970 o         1 MOL     -0.618016
    113 C37        -8.4460   -1.7130   -1.3500 c3        1 MOL     -0.062206
    114 C38        -8.6800   -3.1720   -1.6930 c         1 MOL      0.677871
    115 N11        -9.0930   -3.5170   -2.8740 n         1 MOL     -0.807541
    116 O18        -8.5590   -4.0700   -0.8380 o         1 MOL     -0.601865
    117 H50        -5.8530   -1.9920   -1.4360 hn        1 MOL      0.169981
    118 H51        -7.9020   -0.7510   -3.2490 h1        1 MOL      0.080683
    119 H52        -9.4560   -1.3260   -1.4370 hc        1 MOL      0.028215
    120 H53        -8.1780   -1.5980   -0.2970 hc        1 MOL      0.028215
    121 H54        -9.2060   -2.8610   -3.6330 hn        1 MOL      0.377501
    122 H55        -9.3690   -4.4740   -3.0080 hn        1 MOL      0.377501
    123 N12        -6.3670    0.8400   -0.8020 n         1 MOL     -0.457273
    124 C39        -6.3780    2.0910    0.1070 c3        1 MOL      0.260723
    125 C40        -5.0190    2.7950    0.2250 c         1 MOL      0.286591
    126 O19        -3.9860    2.1570   -0.0290 o         1 MOL     -0.375332
    127 C41        -7.0760    1.6510    1.4450 c3        1 MOL     -0.083199
    128 C42        -6.6400    0.3920    2.1140 ca        1 MOL      0.272692
    129 C43        -7.5300   -0.7230    2.2060 ca        1 MOL     -0.350846
    130 C44        -5.3810    0.3630    2.7510 ca        1 MOL     -0.350846
    131 C45        -7.1450   -1.8980    2.8110 ca        1 MOL     -0.072509
    132 C46        -5.0360   -0.7620    3.5060 ca        1 MOL     -0.072509
    133 C47        -5.9030   -1.8800    3.5270 ca        1 MOL      0.177989
    134 O20        -5.5820   -3.0080    4.2360 oh        1 MOL     -0.446982
    135 H56        -5.8370    0.0040   -0.6000 hn        1 MOL      0.252059
    136 H57        -7.0740    2.8220   -0.2970 h1        1 MOL      0.041076
    137 H58        -8.1700    1.7010    1.4150 hc        1 MOL      0.029581
    138 H59        -6.8560    2.3650    2.2390 hc        1 MOL      0.029581
    139 H60        -8.5330   -0.6490    1.8120 ha        1 MOL      0.135368
    140 H61        -4.6870    1.1830    2.6210 ha        1 MOL      0.135368
    141 H62        -7.9020   -2.6730    2.7910 ha        1 MOL      0.127496
    142 H63        -4.1630   -0.6920    4.1370 ha        1 MOL      0.127496
    143 H64        -6.2400   -3.7200    4.2210 ho        1 MOL      0.313429
    144 N13        -5.0090    3.9580    0.9030 n         1 MOL     -0.503591
    145 C48        -3.8400    4.6860    1.5600 c3        1 MOL      0.074078
    146 C49        -2.7250    5.2320    0.6570 c         1 MOL      0.319359
    147 O21        -2.4080    6.4340    0.6390 o         1 MOL     -0.523337
    148 C50        -3.2440    3.9720    2.8320 c3        1 MOL      0.021862
    149 C51        -4.1380    3.6860    3.9900 c3        1 MOL      0.046864
    150 C52        -3.5890    2.8670    5.1340 c         1 MOL      0.544589
    151 O22        -3.1200    3.5580    6.0630 o         1 MOL     -0.651155
    152 O23        -3.5130    1.6190    5.0950 o         1 MOL     -0.651155
    153 H65        -5.9140    4.3690    1.0830 hn        1 MOL      0.290864
    154 H66        -4.3380    5.6160    1.8630 h1        1 MOL      0.063137
    155 H67        -2.5530    4.7400    3.1770 hc        1 MOL      0.031453
    156 H68        -2.6660    3.1020    2.4950 hc        1 MOL      0.031453
    157 H69        -5.0550    3.1610    3.7010 hc        1 MOL     -0.047254
    158 H70        -4.5600    4.6440    4.3160 hc        1 MOL     -0.047254
    159 N14        -2.2860    4.4100   -0.2750 n         1 MOL      0.007920
    160 C53        -1.0600    4.7170   -1.0990 c3        1 MOL     -0.332883
    161 C54        -1.3390    5.6800   -2.2730 c         1 MOL      0.635507
    162 O24        -0.3910    6.2800   -2.7710 o         1 MOL     -0.546765
    163 C55        -0.3990    3.4280   -1.5860 c3        1 MOL     -0.256615
    164 C56         0.1550    2.4810   -0.5110 c3        1 MOL      0.115800
    165 C57         1.4530    2.9850   -0.0110 c         1 MOL      0.743358
    166 O25         1.5420    4.2080    0.3420 o         1 MOL     -0.660686
    167 O26         2.2960    2.1540    0.3170 o         1 MOL     -0.660686
    168 H71        -2.6950    3.4960   -0.3790 hn        1 MOL      0.123897
    169 H72        -0.3680    5.1940   -0.3940 h1        1 MOL      0.202813
    170 H73         0.3940    3.5920   -2.3240 hc        1 MOL      0.089739
    171 H74        -1.1610    2.8910   -2.1590 hc        1 MOL      0.089739
    172 H75         0.2530    1.5080   -0.9910 hc        1 MOL     -0.022697
    173 H76        -0.5300    2.3910    0.3290 hc        1 MOL     -0.022697
    174 N15        -2.5850    5.7610   -2.7220 n         1 MOL     -0.339759
    175 C58        -3.0370    6.8680   -3.5980 c3        1 MOL     -0.234453
    176 H77        -3.9730    6.5900   -4.0800 h1        1 MOL      0.103163
    177 H78        -3.1890    7.7660   -3.0000 h1        1 MOL      0.103163
    178 H79        -2.2810    7.0620   -4.3590 h1        1 MOL      0.103163
    179 H80        -3.2760    5.1960   -2.2350 hn        1 MOL      0.244977
    180 Ca1         4.5540    1.8310    1.3690 Ca        1 MOL      1.770767
    181 O27         2.8700    1.9830    3.3640 oh        1 MOL     -0.909310
    182 H81         2.0750    2.4900    3.4880 ho        1 MOL      0.429916
    183 H82         2.8320    1.2950    4.0180 ho        1 MOL      0.429916
    184 O28         4.0050    4.3770    1.8690 oh        1 MOL     -0.909310
    185 H83         3.2250    4.4900    1.3160 ho        1 MOL      0.429916
    186 H84         4.6050    5.0660    1.5910 ho        1 MOL      0.429916
    187 O29         6.3880    0.0060    2.3680 oh        1 MOL     -0.909310
    188 H85         7.2920    0.0850    2.0460 ho        1 MOL      0.429916
    189 H86         6.3550   -0.8620    2.7670 ho        1 MOL      0.429916
@<TRIPOS>BOND
     1    1    2 1   
     2    1    4 1   
     3    1    5 1   
     4    1    6 1   
     5    2    3 2   
     6    2    7 1   
     7    7    8 1   
     8    7   15 1   
     9    8    9 1   
    10    8   11 1   
    11    8   16 1   
    12    9   10 2   
    13    9   19 1   
    14   11   12 1   
    15   11   17 1   
    16   11   18 1   
    17   12   13 1   
    18   12   14 1   
    19   19   20 1   
    20   19   27 1   
    21   20   21 1   
    22   20   23 1   
    23   20   28 1   
    24   21   22 2   
    25   21   38 1   
    26   23   24 1   
    27   23   25 1   
    28   23   29 1   
    29   24   26 1   
    30   24   30 1   
    31   24   31 1   
    32   25   32 1   
    33   25   33 1   
    34   25   34 1   
    35   26   35 1   
    36   26   36 1   
    37   26   37 1   
    38   38   39 1   
    39   38   46 1   
    40   39   40 1   
    41   39   42 1   
    42   39   47 1   
    43   40   41 2   
    44   40   50 1   
    45   42   43 1   
    46   42   48 1   
    47   42   49 1   
    48   43   44 1   
    49   43   45 1   
    50   50   51 1   
    51   50   54 1   
    52   51   52 1   
    53   51   55 1   
    54   51   56 1   
    55   52   53 2   
    56   52   57 1   
    57   57   58 1   
    58   57   65 1   
    59   58   59 1   
    60   58   61 1   
    61   58   66 1   
    62   59   60 2   
    63   59   69 1   
    64   61   62 1   
    65   61   67 1   
    66   61   68 1   
    67   62   63 1   
    68   62   64 1   
    69   69   70 1   
    70   69   73 1   
    71   70   71 1   
    72   70   74 1   
    73   70   75 1   
    74   71   72 2   
    75   71   76 1   
    76   76   77 1   
    77   76   85 1   
    78   77   78 1   
    79   77   80 1   
    80   77   86 1   
    81   78   79 2   
    82   78   93 1   
    83   80   81 1   
    84   80   87 1   
    85   80   88 1   
    86   81   82 1   
    87   81   89 1   
    88   81   90 1   
    89   82   83 1   
    90   82   84 2   
    91   83   91 1   
    92   83   92 1   
    93   93   94 1   
    94   93  100 1   
    95   94   95 1   
    96   94   97 1   
    97   94  101 1   
    98   95   96 2   
    99   95  109 1   
   100   97   98 1   
   101   97   99 1   
   102   97  102 1   
   103   98  103 1   
   104   98  104 1   
   105   98  105 1   
   106   99  106 1   
   107   99  107 1   
   108   99  108 1   
   109  109  110 1   
   110  109  117 1   
   111  110  111 1   
   112  110  113 1   
   113  110  118 1   
   114  111  112 2   
   115  111  123 1   
   116  113  114 1   
   117  113  119 1   
   118  113  120 1   
   119  114  115 1   
   120  114  116 2   
   121  115  121 1   
   122  115  122 1   
   123  123  124 1   
   124  123  135 1   
   125  124  125 1   
   126  124  127 1   
   127  124  136 1   
   128  125  126 2   
   129  125  144 1   
   130  127  128 1   
   131  127  137 1   
   132  127  138 1   
   133  128  129 ar  
   134  128  130 ar  
   135  129  131 ar  
   136  129  139 1   
   137  130  132 ar  
   138  130  140 1   
   139  131  133 ar  
   140  131  141 1   
   141  132  133 ar  
   142  132  142 1   
   143  133  134 1   
   144  134  143 1   
   145  144  145 1   
   146  144  153 1   
   147  145  146 1   
   148  145  148 1   
   149  145  154 1   
   150  146  147 2   
   151  146  159 1   
   152  148  149 1   
   153  148  155 1   
   154  148  156 1   
   155  149  150 1   
   156  149  157 1   
   157  149  158 1   
   158  150  151 1   
   159  150  152 1   
   160  159  160 1   
   161  159  168 1   
   162  160  161 1   
   163  160  163 1   
   164  160  169 1   
   165  161  162 2   
   166  161  174 1   
   167  163  164 1   
   168  163  170 1   
   169  163  171 1   
   170  164  165 1   
   171  164  172 1   
   172  164  173 1   
   173  165  166 1   
   174  165  167 1   
   175  174  175 1   
   176  174  179 1   
   177  175  176 1   
   178  175  177 1   
   179  175  178 1   
   180  181  182 1   
   181  181  183 1   
   182  184  185 1   
   183  184  186 1   
   184  187  188 1   
   185  187  189 1   
@<TRIPOS>SUBSTRUCTURE
     1 MOL         1 TEMP              0 ****  ****    0 ROOT
