@<TRIPOS>MOLECULE
MOL
  182   178     1     0     0
SMALL
resp


@<TRIPOS>ATOM
      1 C1         -2.0510   -4.6740    5.0450 c3        1 MOL     -0.401102
      2 C2         -1.5380   -4.0630    3.6750 c         1 MOL      0.761109
      3 O1         -2.2560   -3.9660    2.6840 o         1 MOL     -0.585080
      4 H1         -1.2840   -4.5470    5.8090 hc        1 MOL      0.113574
      5 H2         -2.9600   -4.1600    5.3550 hc        1 MOL      0.113574
      6 H3         -2.2600   -5.7360    4.9130 hc        1 MOL      0.113574
      7 N1         -0.2440   -3.6810    3.5890 n         1 MOL     -0.582654
      8 C3          0.5150   -3.3880    2.3630 c3        1 MOL      0.142922
      9 C4          0.6710   -4.7260    1.4940 c         1 MOL      0.554614
     10 O2          0.8630   -5.7940    1.9820 o         1 MOL     -0.533294
     11 C5          1.9180   -2.7960    2.5790 c3        1 MOL     -0.130297
     12 C6          2.3980   -1.8930    1.5380 c         1 MOL      0.948083
     13 O3          2.8330   -0.7630    1.7860 o         1 MOL     -0.839752
     14 O4          2.2660   -2.1570    0.3270 o         1 MOL     -0.839752
     15 H4          0.3290   -3.8280    4.4070 hn        1 MOL      0.306027
     16 H5         -0.0810   -2.7680    1.6920 h1        1 MOL     -0.041136
     17 H6          2.6200   -3.5880    2.8190 hc        1 MOL      0.028172
     18 H7          1.7950   -2.1470    3.4480 hc        1 MOL      0.028172
     19 N2          0.5820   -4.5350    0.1620 n         1 MOL     -0.372685
     20 C7          0.7960   -5.5400   -0.9010 c3        1 MOL      0.107712
     21 C8          2.2250   -5.5380   -1.4420 c         1 MOL      0.491459
     22 O5          2.6170   -6.5060   -2.0900 o         1 MOL     -0.566272
     23 C9         -0.2320   -5.3000   -2.0140 c3        1 MOL     -0.146641
     24 C10        -0.1970   -3.8890   -2.6660 c3        1 MOL      0.318996
     25 C11        -1.2180   -3.6690   -3.7430 c3        1 MOL     -0.264570
     26 C12        -1.3240   -2.1860   -4.1860 c3        1 MOL      0.080561
     27 N3         -0.0490   -1.6970   -4.8010 n4        1 MOL     -0.578303
     28 H8          0.4710   -3.5900   -0.1810 hn        1 MOL      0.165977
     29 H9          0.7380   -6.5920   -0.6020 h1        1 MOL      0.095313
     30 H10        -1.2020   -5.6200   -1.6430 hc        1 MOL      0.041356
     31 H11        -0.0250   -5.9790   -2.8340 hc        1 MOL      0.041356
     32 H12         0.7900   -3.7280   -3.1050 hc        1 MOL     -0.014225
     33 H13        -0.3020   -3.1180   -1.8890 hc        1 MOL     -0.014225
     34 H14        -2.1590   -3.9870   -3.3020 hc        1 MOL      0.068587
     35 H15        -0.9560   -4.2600   -4.6130 hc        1 MOL      0.068587
     36 H16        -1.5260   -1.6570   -3.2550 hx        1 MOL      0.092799
     37 H17        -2.0920   -2.0430   -4.9520 hx        1 MOL      0.092799
     38 H18         0.7680   -1.8480   -4.2380 hn        1 MOL      0.363801
     39 H19         0.0660   -2.2590   -5.6270 hn        1 MOL      0.363801
     40 H20        -0.1920   -0.7340   -5.0860 hn        1 MOL      0.363801
     41 N4          2.9400   -4.4280   -1.4160 n         1 MOL     -0.405106
     42 C13         4.2110   -4.1430   -2.0880 c3        1 MOL      0.274290
     43 C14         5.4050   -3.7760   -1.1830 c         1 MOL      0.327300
     44 O6          6.5430   -3.9050   -1.6350 o         1 MOL     -0.526077
     45 C15         3.9780   -3.0740   -3.1850 c3        1 MOL     -0.340574
     46 C16         3.3200   -1.7640   -2.6630 c         1 MOL      0.876648
     47 O7          3.9150   -1.0210   -1.8660 o         1 MOL     -0.795723
     48 O8          2.1540   -1.4150   -2.9630 o         1 MOL     -0.795723
     49 H21         2.4770   -3.6950   -0.9040 hn        1 MOL      0.150361
     50 H22         4.5360   -5.0170   -2.6450 h1        1 MOL      0.087970
     51 H23         3.4180   -3.5090   -4.0140 hc        1 MOL      0.067885
     52 H24         5.0090   -2.9200   -3.4980 hc        1 MOL      0.067885
     53 N5          5.1200   -3.3350    0.0280 n         1 MOL     -0.144214
     54 C17         6.1460   -3.0840    1.0480 c3        1 MOL     -0.167463
     55 C18         6.8120   -1.7740    1.0810 c         1 MOL      0.545054
     56 O9          7.8040   -1.4870    1.8160 o         1 MOL     -0.546935
     57 H25         4.1650   -3.0580    0.2220 hn        1 MOL      0.129006
     58 H26         6.9150   -3.8460    0.9950 h1        1 MOL      0.115462
     59 H27         5.6740   -3.2740    2.0130 h1        1 MOL      0.115462
     60 N6          6.3980   -0.9030    0.1790 n         1 MOL     -0.308056
     61 C19         7.0180    0.3270   -0.1610 c3        1 MOL      0.017180
     62 C20         6.0080    1.4350   -0.3770 c         1 MOL      0.507638
     63 O10         4.7860    1.1810   -0.5290 o         1 MOL     -0.436530
     64 C21         7.8950    0.0150   -1.3820 c3        1 MOL     -0.218906
     65 C22         8.9750   -1.0280   -1.2260 c         1 MOL      0.676861
     66 N7          8.8650   -2.1910   -1.7950 n         1 MOL     -0.835294
     67 O11         9.8930   -0.8580   -0.4610 o         1 MOL     -0.536014
     68 H28         5.6590   -1.2130   -0.4280 hn        1 MOL      0.318035
     69 H29         7.6640    0.6140    0.6730 h1        1 MOL      0.082775
     70 H30         8.3210    0.9270   -1.8150 hc        1 MOL      0.050500
     71 H31         7.2420   -0.3350   -2.1770 hc        1 MOL      0.050500
     72 H32         8.1680   -2.4600   -2.4870 hn        1 MOL      0.384858
     73 H33         9.3930   -2.9810   -1.4630 hn        1 MOL      0.384858
     74 N8          6.4040    2.6990   -0.5140 n         1 MOL     -0.425136
     75 C23         5.5420    3.7970   -0.9530 c3        1 MOL     -0.115747
     76 C24         4.5320    4.1230    0.0950 c         1 MOL      0.692488
     77 O12         4.8350    4.1260    1.3140 o         1 MOL     -0.539872
     78 H34         7.3930    2.9380   -0.5230 hn        1 MOL      0.322657
     79 H35         5.0320    3.4950   -1.8730 h1        1 MOL      0.092182
     80 H36         6.1290    4.6970   -1.1450 h1        1 MOL      0.092182
     81 N9          3.2640    4.3550   -0.3420 n         1 MOL     -0.785786
     82 C25         2.1080    4.5680    0.5640 c3        1 MOL      0.690103
     83 C26         1.6260    3.3010    1.2360 c         1 MOL      0.095077
     84 O13         1.9820    2.1870    0.8340 o         1 MOL     -0.396219
     85 C27         1.0050    5.2650   -0.2190 c3        1 MOL     -0.131857
     86 C28         1.3290    6.7340   -0.6470 ca        1 MOL     -0.046789
     87 C29         1.3730    7.8450    0.2840 ca        1 MOL     -0.050222
     88 C30         1.5890    6.9800   -1.9760 ca        1 MOL     -0.050222
     89 C31         1.8500    9.0990   -0.1220 ca        1 MOL     -0.351304
     90 C32         2.0480    8.2500   -2.4030 ca        1 MOL     -0.351304
     91 C33         2.1860    9.2750   -1.4800 ca        1 MOL      0.420624
     92 O14         2.5850   10.5090   -1.9820 oh        1 MOL     -0.459444
     93 H37         3.1740    4.3370   -1.3480 hn        1 MOL      0.262676
     94 H38         2.4540    5.3030    1.2910 h1        1 MOL     -0.026279
     95 H39         0.1100    5.3310    0.4050 hc        1 MOL      0.010609
     96 H40         0.8730    4.6570   -1.1130 hc        1 MOL      0.010609
     97 H41         1.0390    7.6450    1.2910 ha        1 MOL      0.104054
     98 H42         1.4490    6.1860   -2.7020 ha        1 MOL      0.104054
     99 H43         1.8810    9.9210    0.5750 ha        1 MOL      0.189398
    100 H44         2.2550    8.4940   -3.4340 ha        1 MOL      0.189398
    101 H45         2.6330   10.4660   -2.9380 ho        1 MOL      0.325613
    102 N10         0.8470    3.5010    2.3080 n         1 MOL     -0.349399
    103 C34         0.2800    2.5380    3.1760 c3        1 MOL      0.103535
    104 C35        -0.5890    1.4890    2.3830 c         1 MOL      0.267436
    105 O15        -0.4180    1.1570    1.1740 o         1 MOL     -0.445915
    106 C36         1.4000    1.9720    4.1290 c3        1 MOL      0.038012
    107 C37         0.8780    1.4040    5.4420 c3        1 MOL     -0.084965
    108 C38         2.4830    2.9800    4.3880 c3        1 MOL     -0.110521
    109 C39         1.7900    0.2710    5.8930 c3        1 MOL     -0.019276
    110 H46         0.8980    4.4490    2.6690 hn        1 MOL      0.273046
    111 H47        -0.4340    3.0630    3.8100 h1        1 MOL      0.049697
    112 H48         1.9570    1.1840    3.6160 hc        1 MOL      0.154575
    113 H49        -0.0740    0.8880    5.2790 hc        1 MOL      0.021112
    114 H50         0.7400    2.1630    6.2190 hc        1 MOL      0.021112
    115 H51         3.0870    2.8430    5.2800 hc        1 MOL      0.038613
    116 H52         3.1210    3.1020    3.5170 hc        1 MOL      0.038613
    117 H53         2.0270    3.9550    4.5740 hc        1 MOL      0.038613
    118 H54         1.6670    0.2620    6.9820 hc        1 MOL      0.012931
    119 H55         1.4620   -0.7120    5.5830 hc        1 MOL      0.012931
    120 H56         2.8540    0.3000    5.6440 hc        1 MOL      0.012931
    121 N11        -1.5410    0.8920    3.0880 n         1 MOL     -0.271310
    122 C40        -2.4160   -0.2250    2.7190 c3        1 MOL     -0.069473
    123 C41        -3.4760   -0.0940    1.5170 c         1 MOL      0.442279
    124 O16        -4.3600   -0.9630    1.4300 o         1 MOL     -0.485971
    125 C42        -3.3040   -0.6640    3.9050 c3        1 MOL      0.002435
    126 O17        -2.5050   -0.8550    5.1240 oh        1 MOL     -0.596630
    127 H57        -1.5470    1.2210    4.0500 hn        1 MOL      0.218778
    128 H58        -1.8490   -1.1120    2.4450 h1        1 MOL      0.200214
    129 H59        -3.7830   -1.6070    3.6880 h1        1 MOL      0.123239
    130 H60        -4.0420    0.1080    4.1060 h1        1 MOL      0.123239
    131 H61        -2.6820   -0.1000    5.7000 ho        1 MOL      0.397360
    132 N12        -3.3830    0.9200    0.6140 n         1 MOL     -0.357007
    133 C43        -4.2510    1.1160   -0.6140 c3        1 MOL     -0.034206
    134 C44        -3.9810    0.1640   -1.8220 c         1 MOL      0.676833
    135 O18        -2.8110    0.1830   -2.3600 o         1 MOL     -0.671510
    136 C45        -4.2750    2.5780   -1.0930 c3        1 MOL     -0.252787
    137 H62        -2.6100    1.5740    0.6920 hn        1 MOL      0.266682
    138 H63        -5.2810    0.9400   -0.2810 h1        1 MOL      0.112953
    139 H64        -4.4870    3.3390   -0.3420 hc        1 MOL      0.090468
    140 H65        -3.2840    2.8750   -1.4570 hc        1 MOL      0.090468
    141 H66        -5.0020    2.8260   -1.8660 hc        1 MOL      0.090468
    142 N13        -4.9390   -0.6740   -2.2480 n         1 MOL     -0.651520
    143 C46        -6.2760   -0.9590   -1.6950 c3        1 MOL      0.390521
    144 C47        -7.2680    0.2140   -1.8440 c         1 MOL      0.627740
    145 O19        -7.0750    1.1200   -2.6710 o         1 MOL     -0.586910
    146 C48        -6.8570   -2.1740   -2.4240 c3        1 MOL     -0.205958
    147 H67        -4.6480   -1.1640   -3.0840 hn        1 MOL      0.320285
    148 H68        -6.1140   -1.2180   -0.6530 h1        1 MOL      0.052011
    149 H69        -7.7820   -2.5010   -1.9500 hc        1 MOL      0.059658
    150 H70        -6.9530   -1.9060   -3.4810 hc        1 MOL      0.059658
    151 H71        -6.2370   -3.0560   -2.2270 hc        1 MOL      0.059658
    152 N14        -8.4310    0.2840   -1.1160 n         1 MOL     -0.605326
    153 C49        -8.9760   -0.5600   -0.0770 c3        1 MOL     -0.122847
    154 C50        -9.3170    0.2290    1.2250 c         1 MOL      0.524756
    155 O20        -8.8850   -0.0670    2.3660 o         1 MOL     -0.568098
    156 C51       -10.1380   -1.4260   -0.6610 c3        1 MOL      0.157785
    157 C52       -11.5310   -0.7610   -0.9440 c3        1 MOL     -0.025054
    158 C53       -11.4920    0.3710   -2.0010 c         1 MOL      0.628191
    159 O21       -12.1250    0.1090   -3.0800 o         1 MOL     -0.657204
    160 O22       -10.7960    1.4100   -1.7980 o         1 MOL     -0.657204
    161 H72        -9.0770    0.9780   -1.4550 hn        1 MOL      0.330889
    162 H73        -8.1300   -1.2080    0.1490 h1        1 MOL      0.019561
    163 H74       -10.4560   -2.1730    0.0740 hc        1 MOL     -0.018509
    164 H75        -9.8100   -1.9460   -1.5540 hc        1 MOL     -0.018509
    165 H76       -11.8710   -0.3430    0.0000 hc        1 MOL     -0.026605
    166 H77       -12.1830   -1.6010   -1.2260 hc        1 MOL     -0.026605
    167 N15        -9.9650    1.3430    0.9100 n         1 MOL     -0.233732
    168 C54       -10.3480    2.3540    1.9840 c3        1 MOL     -0.136067
    169 H78       -11.3880    2.6500    1.8480 h1        1 MOL      0.074787
    170 H79       -10.2240    1.9030    2.9680 h1        1 MOL      0.074787
    171 H80        -9.7070    3.2310    1.9020 h1        1 MOL      0.074787
    172 H81       -10.2540    1.4780   -0.0530 hn        1 MOL      0.218704
    173 Ca1         1.9360    0.2010   -0.7640 Ca        1 MOL      1.778215
    174 O23        -0.2710    1.3740   -1.6730 oh        1 MOL     -0.865274
    175 H82        -1.1520    0.9960   -1.7640 ho        1 MOL      0.418696
    176 H83        -0.3260    2.2200   -2.1150 ho        1 MOL      0.418696
    177 O24         2.5680    1.8480   -2.8410 oh        1 MOL     -0.865274
    178 H84         2.1880    1.5920   -3.6850 ho        1 MOL      0.418696
    179 H85         2.8370    2.7570   -2.9730 ho        1 MOL      0.418696
    180 O25        -0.4440   -1.1700   -0.2920 oh        1 MOL     -0.865274
    181 H86        -1.2400   -1.7000   -0.2290 ho        1 MOL      0.418696
    182 H87        -0.7020   -0.3210    0.0810 ho        1 MOL      0.418696
@<TRIPOS>BOND
     1    1    2 1   
     2    1    4 1   
     3    1    5 1   
     4    1    6 1   
     5    2    3 2   
     6    2    7 1   
     7    7    8 1   
     8    7   15 1   
     9    8    9 1   
    10    8   11 1   
    11    8   16 1   
    12    9   10 2   
    13    9   19 1   
    14   11   12 1   
    15   11   17 1   
    16   11   18 1   
    17   12   13 1   
    18   12   14 1   
    19   19   20 1   
    20   19   28 1   
    21   20   21 1   
    22   20   23 1   
    23   20   29 1   
    24   21   22 2   
    25   21   41 1   
    26   23   24 1   
    27   23   30 1   
    28   23   31 1   
    29   24   25 1   
    30   24   32 1   
    31   24   33 1   
    32   25   26 1   
    33   25   34 1   
    34   25   35 1   
    35   26   27 1   
    36   26   36 1   
    37   26   37 1   
    38   27   38 1   
    39   27   39 1   
    40   27   40 1   
    41   41   42 1   
    42   41   49 1   
    43   42   43 1   
    44   42   45 1   
    45   42   50 1   
    46   43   44 2   
    47   43   53 1   
    48   45   46 1   
    49   45   51 1   
    50   45   52 1   
    51   46   47 1   
    52   46   48 1   
    53   53   54 1   
    54   53   57 1   
    55   54   55 1   
    56   54   58 1   
    57   54   59 1   
    58   55   56 2   
    59   55   60 1   
    60   60   61 1   
    61   60   68 1   
    62   61   62 1   
    63   61   64 1   
    64   61   69 1   
    65   62   63 2   
    66   62   74 1   
    67   64   65 1   
    68   64   70 1   
    69   64   71 1   
    70   65   66 1   
    71   65   67 2   
    72   66   72 1   
    73   66   73 1   
    74   74   75 1   
    75   74   78 1   
    76   75   76 1   
    77   75   79 1   
    78   75   80 1   
    79   76   77 2   
    80   76   81 1   
    81   81   82 1   
    82   81   93 1   
    83   82   83 1   
    84   82   85 1   
    85   82   94 1   
    86   83   84 2   
    87   83  102 1   
    88   85   86 1   
    89   85   95 1   
    90   85   96 1   
    91   86   87 ar  
    92   86   88 ar  
    93   87   89 ar  
    94   87   97 1   
    95   88   90 ar  
    96   88   98 1   
    97   89   91 ar  
    98   89   99 1   
    99   90   91 ar  
   100   90  100 1   
   101   91   92 1   
   102   92  101 1   
   103  102  103 1   
   104  102  110 1   
   105  103  104 1   
   106  103  106 1   
   107  103  111 1   
   108  104  105 2   
   109  104  121 1   
   110  106  107 1   
   111  106  108 1   
   112  106  112 1   
   113  107  109 1   
   114  107  113 1   
   115  107  114 1   
   116  108  115 1   
   117  108  116 1   
   118  108  117 1   
   119  109  118 1   
   120  109  119 1   
   121  109  120 1   
   122  121  122 1   
   123  121  127 1   
   124  122  123 1   
   125  122  125 1   
   126  122  128 1   
   127  123  124 2   
   128  123  132 1   
   129  125  126 1   
   130  125  129 1   
   131  125  130 1   
   132  126  131 1   
   133  132  133 1   
   134  132  137 1   
   135  133  134 1   
   136  133  136 1   
   137  133  138 1   
   138  134  135 2   
   139  134  142 1   
   140  136  139 1   
   141  136  140 1   
   142  136  141 1   
   143  142  143 1   
   144  142  147 1   
   145  143  144 1   
   146  143  146 1   
   147  143  148 1   
   148  144  145 2   
   149  144  152 1   
   150  146  149 1   
   151  146  150 1   
   152  146  151 1   
   153  152  153 1   
   154  152  161 1   
   155  153  154 1   
   156  153  156 1   
   157  153  162 1   
   158  154  155 2   
   159  154  167 1   
   160  156  157 1   
   161  156  163 1   
   162  156  164 1   
   163  157  158 1   
   164  157  165 1   
   165  157  166 1   
   166  158  159 1   
   167  158  160 1   
   168  167  168 1   
   169  167  172 1   
   170  168  169 1   
   171  168  170 1   
   172  168  171 1   
   173  174  175 1   
   174  174  176 1   
   175  177  178 1   
   176  177  179 1   
   177  180  181 1   
   178  180  182 1   
@<TRIPOS>SUBSTRUCTURE
     1 MOL         1 TEMP              0 ****  ****    0 ROOT
