@<TRIPOS>MOLECULE
MOL
  188   182     1     0     0
SMALL
resp


@<TRIPOS>ATOM
      1 C1         -6.9070   -1.3340    2.4740 c3        1 MOL     -0.391649
      2 C2         -7.4480   -1.5870    1.0340 c         1 MOL      0.642255
      3 O1         -6.6990   -1.4620    0.0690 o         1 MOL     -0.507530
      4 H1         -7.7430   -1.1510    3.1490 hc        1 MOL      0.095117
      5 H2         -6.3520   -2.2090    2.8140 hc        1 MOL      0.095117
      6 H3         -6.2490   -0.4660    2.4680 hc        1 MOL      0.095117
      7 N1         -8.7340   -1.8140    0.9200 n         1 MOL     -0.443034
      8 C3         -9.4480   -1.8730   -0.3620 c3        1 MOL     -0.204412
      9 C4         -9.3110   -0.5190   -1.1410 c         1 MOL      0.672056
     10 O2         -9.1240   -0.4880   -2.3470 o         1 MOL     -0.514414
     11 C5         -9.1530   -3.1060   -1.2050 c3        1 MOL     -0.141744
     12 C6         -9.2080   -4.4040   -0.3210 c         1 MOL      0.718472
     13 O3        -10.3520   -4.7810    0.0990 o         1 MOL     -0.671280
     14 O4         -8.2140   -5.1490   -0.2380 o         1 MOL     -0.671280
     15 H4         -9.1880   -2.0870    1.7800 hn        1 MOL      0.313676
     16 H5        -10.4980   -1.9580   -0.1120 h1        1 MOL      0.095878
     17 H6         -8.1870   -3.0680   -1.7100 hc        1 MOL      0.063743
     18 H7         -9.8760   -3.2300   -2.0070 hc        1 MOL      0.063743
     19 N2         -9.2220    0.5380   -0.3560 n         1 MOL     -0.481310
     20 C7         -8.9950    1.8710   -0.8470 c3        1 MOL     -0.038187
     21 C8         -7.5380    2.3590   -0.9060 c         1 MOL      0.653969
     22 O5         -7.2210    3.4890   -1.3340 o         1 MOL     -0.602561
     23 C9         -9.8040    2.8760    0.0940 c3        1 MOL      0.062111
     24 C10        -9.3400    3.0270    1.5800 c3        1 MOL     -0.017416
     25 C11       -10.3850    3.9150    2.3620 c3        1 MOL     -0.098628
     26 C12       -10.0250    5.3410    1.9860 c3        1 MOL     -0.041815
     27 N3        -10.9980    6.2440    2.7350 n4        1 MOL     -0.218722
     28 H8         -9.5050    0.5270    0.6210 hn        1 MOL      0.264905
     29 H9         -9.4950    1.8710   -1.8150 h1        1 MOL      0.106682
     30 H10       -10.8000    2.4230    0.1090 hc        1 MOL     -0.002445
     31 H11        -9.8920    3.8130   -0.4600 hc        1 MOL     -0.002445
     32 H12        -8.3270    3.4440    1.5780 hc        1 MOL      0.019248
     33 H13        -9.2530    2.0440    2.0340 hc        1 MOL      0.019248
     34 H14       -10.2550    3.7440    3.4280 hc        1 MOL      0.055871
     35 H15       -11.4190    3.6910    2.1020 hc        1 MOL      0.055871
     36 H16       -10.1560    5.4560    0.9070 hx        1 MOL      0.113980
     37 H17        -8.9400    5.5120    2.0240 hx        1 MOL      0.113980
     38 H18       -11.0330    7.1750    2.3490 hn        1 MOL      0.205291
     39 H19       -11.9410    5.8820    2.7720 hn        1 MOL      0.205291
     40 H20       -10.7330    6.2110    3.7060 hn        1 MOL      0.205291
     41 N4         -6.6180    1.4920   -0.4360 n         1 MOL     -0.563586
     42 C13        -5.1620    1.7610   -0.4750 c3        1 MOL      0.024439
     43 C14        -4.6380    1.9360   -1.8860 c         1 MOL      0.618950
     44 O6         -4.8850    1.1290   -2.7810 o         1 MOL     -0.496609
     45 C15        -4.3190    0.6540    0.2420 c3        1 MOL     -0.084519
     46 C16        -2.8980    1.0010    0.4150 c         1 MOL      0.552601
     47 O7         -2.1900    0.8940   -0.5770 o         1 MOL     -0.767308
     48 O8         -2.4790    1.5030    1.5420 o         1 MOL     -0.767308
     49 H21        -6.8390    0.5060   -0.3230 hn        1 MOL      0.312615
     50 H22        -5.0280    2.6940    0.0700 h1        1 MOL      0.046337
     51 H23        -4.2530   -0.2940   -0.3050 hc        1 MOL      0.066387
     52 H24        -4.7550    0.5040    1.2370 hc        1 MOL      0.066387
     53 N5         -3.9330    2.9850   -2.1270 n         1 MOL     -0.262286
     54 C17        -3.3490    3.3720   -3.4330 c3        1 MOL     -0.173923
     55 C18        -2.4180    2.2580   -4.0900 c         1 MOL      0.554876
     56 O9         -2.1470    2.2840   -5.2740 o         1 MOL     -0.532400
     57 H25        -3.7680    3.6230   -1.3620 hn        1 MOL      0.203155
     58 H26        -2.6110    4.1400   -3.2020 h1        1 MOL      0.092937
     59 H27        -4.1310    3.6250   -4.1500 h1        1 MOL      0.092937
     60 N6         -1.8200    1.2610   -3.3840 n         1 MOL     -0.498202
     61 C19        -0.9500    0.1950   -3.9760 c3        1 MOL     -0.028246
     62 C20        -1.2940   -1.1890   -3.4390 c         1 MOL      0.449496
     63 O10        -0.5490   -2.2000   -3.4840 o         1 MOL     -0.539109
     64 C21         0.5920    0.4850   -3.9670 c3        1 MOL     -0.375020
     65 C22         1.1690    0.6630   -2.5710 c         1 MOL      0.627710
     66 N7          2.4730    0.5220   -2.3660 n         1 MOL     -0.751300
     67 O11         0.5200    1.1570   -1.6910 o         1 MOL     -0.541705
     68 H28        -1.9250    1.3300   -2.3870 hn        1 MOL      0.500807
     69 H29        -1.1370    0.1510   -5.0500 h1        1 MOL      0.157287
     70 H30         0.7240    1.4170   -4.5150 hc        1 MOL      0.155863
     71 H31         1.0170   -0.3450   -4.5240 hc        1 MOL      0.155863
     72 H32         3.1720    0.2400   -3.0410 hn        1 MOL      0.349816
     73 H33         2.7190    0.7700   -1.4260 hn        1 MOL      0.349816
     74 N8         -2.4920   -1.2610   -2.7440 n         1 MOL     -0.116449
     75 C23        -2.9530   -2.5160   -2.2260 c3        1 MOL     -0.284963
     76 C24        -2.1490   -3.0580   -1.0370 c         1 MOL      0.607646
     77 O12        -2.1250   -4.2990   -0.8510 o         1 MOL     -0.526604
     78 H34        -2.9610   -0.3720   -2.6100 hn        1 MOL      0.095759
     79 H35        -2.8340   -3.2620   -3.0170 h1        1 MOL      0.152006
     80 H36        -3.9460   -2.2850   -1.8400 h1        1 MOL      0.152006
     81 N9         -1.5130   -2.1620   -0.2440 n         1 MOL     -0.426833
     82 C25        -0.8400   -2.5440    1.0110 c3        1 MOL      0.010233
     83 C26         0.4680   -1.7730    1.1710 c         1 MOL      0.255620
     84 O13         0.4240   -0.5720    1.0490 o         1 MOL     -0.513845
     85 C27        -1.8220   -2.2850    2.1500 c3        1 MOL     -0.176339
     86 C28        -1.1460   -2.3750    3.5490 ca        1 MOL     -0.142354
     87 C29        -0.6470   -3.5640    4.1170 ca        1 MOL      0.006401
     88 C30        -0.9710   -1.2210    4.3450 ca        1 MOL      0.006401
     89 C31         0.0030   -3.6390    5.3610 ca        1 MOL     -0.414238
     90 C32        -0.4110   -1.1810    5.6030 ca        1 MOL     -0.414238
     91 C33         0.0950   -2.4170    6.0960 ca        1 MOL      0.521771
     92 O14         0.6300   -2.3430    7.3350 oh        1 MOL     -0.508554
     93 H37        -1.5980   -1.2100   -0.5630 hn        1 MOL      0.282699
     94 H38        -0.5710   -3.5900    0.8760 h1        1 MOL      0.051430
     95 H39        -2.7050   -2.9150    2.0390 hc        1 MOL      0.149462
     96 H40        -2.2100   -1.2760    2.0250 hc        1 MOL      0.149462
     97 H41        -0.7840   -4.4810    3.5580 ha        1 MOL      0.106140
     98 H42        -1.3900   -0.2930    3.9610 ha        1 MOL      0.106140
     99 H43         0.2690   -4.6210    5.7220 ha        1 MOL      0.184087
    100 H44        -0.2650   -0.2790    6.1840 ha        1 MOL      0.184087
    101 H45         0.7790   -1.4630    7.6750 ho        1 MOL      0.358270
    102 N10         1.5440   -2.5060    1.5520 n         1 MOL      0.047648
    103 C34         2.9170   -2.0220    1.3520 c3        1 MOL     -0.019545
    104 C35         3.2630   -1.9270   -0.0800 c         1 MOL      0.507427
    105 O15         3.8510   -0.9430   -0.4620 o         1 MOL     -0.507414
    106 C36         3.9290   -2.8930    2.1590 c3        1 MOL     -0.036774
    107 C37         3.4600   -2.9170    3.6350 c3        1 MOL      0.165560
    108 C38         5.3420   -2.2680    2.0980 c3        1 MOL     -0.370032
    109 C39         2.9300   -1.6390    4.3030 c3        1 MOL     -0.011976
    110 H46         1.3840   -3.4930    1.6810 hn        1 MOL      0.177824
    111 H47         2.9260   -0.9740    1.6840 h1        1 MOL      0.022761
    112 H48         4.0040   -3.8900    1.7400 hc        1 MOL      0.001370
    113 H49         4.2900   -3.2990    4.2260 hc        1 MOL     -0.015368
    114 H50         2.6480   -3.6450    3.5880 hc        1 MOL     -0.015368
    115 H51         5.4450   -1.2160    1.8360 hc        1 MOL      0.110076
    116 H52         5.8340   -2.3620    3.0670 hc        1 MOL      0.110076
    117 H53         5.9430   -2.7840    1.3380 hc        1 MOL      0.110076
    118 H54         2.5330   -1.9730    5.2600 hc        1 MOL     -0.026027
    119 H55         3.7500   -0.9290    4.3240 hc        1 MOL     -0.026027
    120 H56         2.0830   -1.1960    3.7830 hc        1 MOL     -0.026027
    121 N11         2.9620   -2.9400   -0.8820 n         1 MOL     -0.253918
    122 C40         3.3330   -2.9980   -2.2680 c3        1 MOL     -0.193008
    123 C41         4.8310   -2.9470   -2.6060 c         1 MOL      0.677219
    124 O16         5.2250   -2.4350   -3.6760 o         1 MOL     -0.551080
    125 C42         2.7180   -4.2820   -2.9210 c3        1 MOL      0.084908
    126 O17         3.2120   -5.4980   -2.3790 oh        1 MOL     -0.652778
    127 H57         2.4650   -3.7480   -0.5380 hn        1 MOL      0.240919
    128 H58         2.8220   -2.1900   -2.7880 h1        1 MOL      0.111586
    129 H59         2.9700   -4.2230   -3.9790 h1        1 MOL      0.088521
    130 H60         1.6420   -4.2700   -2.7290 h1        1 MOL      0.088521
    131 H61         3.0640   -6.2750   -2.9160 ho        1 MOL      0.450443
    132 N12         5.7090   -3.2910   -1.6730 n         1 MOL     -0.476637
    133 C43         7.1390   -3.0880   -1.5510 c3        1 MOL      0.060009
    134 C44         7.6460   -1.6260   -1.8770 c         1 MOL      0.509910
    135 O18         8.8010   -1.3790   -2.0970 o         1 MOL     -0.529350
    136 C45         7.8330   -4.1460   -2.3630 c3        1 MOL     -0.648336
    137 H62         5.3200   -3.8970   -0.9630 hn        1 MOL      0.312735
    138 H63         7.4180   -3.2850   -0.5170 h1        1 MOL      0.140274
    139 H64         8.9210   -4.2390   -2.2740 hc        1 MOL      0.191674
    140 H65         7.4300   -5.1150   -2.0670 hc        1 MOL      0.191674
    141 H66         7.8510   -3.9460   -3.4330 hc        1 MOL      0.191674
    142 N13         6.8110   -0.6190   -1.7910 n         1 MOL     -0.268662
    143 C46         7.2500    0.8030   -1.7960 c3        1 MOL      0.080296
    144 C47         7.9870    1.2220   -0.4890 c         1 MOL      0.448832
    145 O19         7.3750    1.0620    0.5650 o         1 MOL     -0.506745
    146 C48         6.0430    1.6620   -2.0040 c3        1 MOL     -0.038741
    147 H67         5.9180   -0.8450   -1.3720 hn        1 MOL      0.154284
    148 H68         7.8710    0.9790   -2.6730 h1        1 MOL      0.062364
    149 H69         6.2990    2.7090   -1.9120 hc        1 MOL      0.004800
    150 H70         5.6600    1.4820   -3.0180 hc        1 MOL      0.004800
    151 H71         5.2810    1.3610   -1.2800 hc        1 MOL      0.004800
    152 N14         9.1500    1.8140   -0.5760 n         1 MOL     -0.451730
    153 C49         9.8690    2.3760    0.5910 c3        1 MOL      0.042450
    154 C50        10.0850    1.2790    1.6310 c         1 MOL      0.442092
    155 O20         9.9480    1.4510    2.8200 o         1 MOL     -0.498133
    156 C51         9.1360    3.6540    1.0110 c3        1 MOL      0.229933
    157 C52         9.2840    5.0090    0.3020 c3        1 MOL     -0.217280
    158 C53        10.7700    5.4640    0.3080 c         1 MOL      0.684544
    159 O21        11.5870    4.9120   -0.4400 o         1 MOL     -0.645363
    160 O22        11.1850    6.3150    1.1550 o         1 MOL     -0.645363
    161 H72         9.5200    1.9600   -1.4960 hn        1 MOL      0.288404
    162 H73        10.8160    2.6320    0.1110 h1        1 MOL      0.066450
    163 H74         9.4760    3.8200    2.0340 hc        1 MOL     -0.035523
    164 H75         8.0860    3.4270    1.1860 hc        1 MOL     -0.035523
    165 H76         8.6300    5.6880    0.8310 hc        1 MOL      0.008992
    166 H77         8.9320    5.0790   -0.7230 hc        1 MOL      0.008992
    167 N15        10.3120    0.0640    1.1050 n         1 MOL     -0.314299
    168 C54        10.3360   -1.1450    1.9400 c3        1 MOL     -0.009940
    169 H78        11.3640   -1.4890    2.0500 h1        1 MOL      0.045041
    170 H79         9.9220   -0.9170    2.9220 h1        1 MOL      0.045041
    171 H80         9.7400   -1.9260    1.4680 h1        1 MOL      0.045041
    172 H81        10.3780   -0.0240    0.0940 hn        1 MOL      0.235894
    173 Ca1        -0.0630    2.0240    0.7290 Ca        1 MOL      1.792576
    174 O23        -0.8340    4.2170    2.1910 oh        1 MOL     -0.845489
    175 H82        -1.6860    4.0550    2.6000 ho        1 MOL      0.422590
    176 H83        -0.5460    5.0410    2.5650 ho        1 MOL      0.422590
    177 O24         1.7420    4.1150    0.4180 oh        1 MOL     -0.845489
    178 H84         1.8480    4.7680    1.1100 ho        1 MOL      0.422590
    179 H85         2.5560    4.1740   -0.0840 ho        1 MOL      0.422590
    180 O25        -0.7930    3.8380   -1.2130 oh        1 MOL     -0.845489
    181 H86        -1.4090    4.5710   -1.1020 ho        1 MOL      0.422590
    182 H87        -0.4850    3.9220   -2.1110 ho        1 MOL      0.422590
    183 O26         2.6890    1.4170    0.5360 oh        1 MOL     -0.845489
    184 H88         3.2050    0.6320    0.3780 ho        1 MOL      0.422590
    185 H89         3.3400    2.1160    0.6380 ho        1 MOL      0.422590
    186 O27         0.8530    1.8880    3.3080 oh        1 MOL     -0.845489
    187 H90         1.4960    2.5770    3.4900 ho        1 MOL      0.422590
    188 H91         0.9010    1.3040    4.0590 ho        1 MOL      0.422590
@<TRIPOS>BOND
     1    1    2 1   
     2    1    4 1   
     3    1    5 1   
     4    1    6 1   
     5    2    3 2   
     6    2    7 1   
     7    7    8 1   
     8    7   15 1   
     9    8    9 1   
    10    8   11 1   
    11    8   16 1   
    12    9   10 2   
    13    9   19 1   
    14   11   12 1   
    15   11   17 1   
    16   11   18 1   
    17   12   13 1   
    18   12   14 1   
    19   19   20 1   
    20   19   28 1   
    21   20   21 1   
    22   20   23 1   
    23   20   29 1   
    24   21   22 2   
    25   21   41 1   
    26   23   24 1   
    27   23   30 1   
    28   23   31 1   
    29   24   25 1   
    30   24   32 1   
    31   24   33 1   
    32   25   26 1   
    33   25   34 1   
    34   25   35 1   
    35   26   27 1   
    36   26   36 1   
    37   26   37 1   
    38   27   38 1   
    39   27   39 1   
    40   27   40 1   
    41   41   42 1   
    42   41   49 1   
    43   42   43 1   
    44   42   45 1   
    45   42   50 1   
    46   43   44 2   
    47   43   53 1   
    48   45   46 1   
    49   45   51 1   
    50   45   52 1   
    51   46   47 1   
    52   46   48 1   
    53   53   54 1   
    54   53   57 1   
    55   54   55 1   
    56   54   58 1   
    57   54   59 1   
    58   55   56 2   
    59   55   60 1   
    60   60   61 1   
    61   60   68 1   
    62   61   62 1   
    63   61   64 1   
    64   61   69 1   
    65   62   63 2   
    66   62   74 1   
    67   64   65 1   
    68   64   70 1   
    69   64   71 1   
    70   65   66 1   
    71   65   67 2   
    72   66   72 1   
    73   66   73 1   
    74   74   75 1   
    75   74   78 1   
    76   75   76 1   
    77   75   79 1   
    78   75   80 1   
    79   76   77 2   
    80   76   81 1   
    81   81   82 1   
    82   81   93 1   
    83   82   83 1   
    84   82   85 1   
    85   82   94 1   
    86   83   84 2   
    87   83  102 1   
    88   85   86 1   
    89   85   95 1   
    90   85   96 1   
    91   86   87 ar  
    92   86   88 ar  
    93   87   89 ar  
    94   87   97 1   
    95   88   90 ar  
    96   88   98 1   
    97   89   91 ar  
    98   89   99 1   
    99   90   91 ar  
   100   90  100 1   
   101   91   92 1   
   102   92  101 1   
   103  102  103 1   
   104  102  110 1   
   105  103  104 1   
   106  103  106 1   
   107  103  111 1   
   108  104  105 2   
   109  104  121 1   
   110  106  107 1   
   111  106  108 1   
   112  106  112 1   
   113  107  109 1   
   114  107  113 1   
   115  107  114 1   
   116  108  115 1   
   117  108  116 1   
   118  108  117 1   
   119  109  118 1   
   120  109  119 1   
   121  109  120 1   
   122  121  122 1   
   123  121  127 1   
   124  122  123 1   
   125  122  125 1   
   126  122  128 1   
   127  123  124 2   
   128  123  132 1   
   129  125  126 1   
   130  125  129 1   
   131  125  130 1   
   132  126  131 1   
   133  132  133 1   
   134  132  137 1   
   135  133  134 1   
   136  133  136 1   
   137  133  138 1   
   138  134  135 2   
   139  134  142 1   
   140  136  139 1   
   141  136  140 1   
   142  136  141 1   
   143  142  143 1   
   144  142  147 1   
   145  143  144 1   
   146  143  146 1   
   147  143  148 1   
   148  144  145 2   
   149  144  152 1   
   150  146  149 1   
   151  146  150 1   
   152  146  151 1   
   153  152  153 1   
   154  152  161 1   
   155  153  154 1   
   156  153  156 1   
   157  153  162 1   
   158  154  155 2   
   159  154  167 1   
   160  156  157 1   
   161  156  163 1   
   162  156  164 1   
   163  157  158 1   
   164  157  165 1   
   165  157  166 1   
   166  158  159 1   
   167  158  160 1   
   168  167  168 1   
   169  167  172 1   
   170  168  169 1   
   171  168  170 1   
   172  168  171 1   
   173  174  175 1   
   174  174  176 1   
   175  177  178 1   
   176  177  179 1   
   177  180  181 1   
   178  180  182 1   
   179  183  184 1   
   180  183  185 1   
   181  186  187 1   
   182  186  188 1   
@<TRIPOS>SUBSTRUCTURE
     1 MOL         1 TEMP              0 ****  ****    0 ROOT
