@<TRIPOS>MOLECULE
MOL
  181   177     1     0     0
SMALL
resp


@<TRIPOS>ATOM
      1 C1          0.8730    7.3780   -2.2640 c3        1 MOL     -0.412640
      2 C2          2.0760    6.8700   -1.4360 c         1 MOL      0.762369
      3 O1          2.2620    7.3820   -0.3360 o         1 MOL     -0.595549
      4 H1          0.6880    8.4260   -2.0290 hc        1 MOL      0.095794
      5 H2          1.0940    7.2780   -3.3270 hc        1 MOL      0.095794
      6 H3         -0.0110    6.7900   -2.0200 hc        1 MOL      0.095794
      7 N1          2.9900    6.0370   -2.0210 n         1 MOL     -0.715772
      8 C3          4.2910    5.6370   -1.3630 c3        1 MOL      0.229371
      9 C4          4.0740    4.5410   -0.2570 c         1 MOL      0.549591
     10 O2          3.4060    3.6090   -0.5570 o         1 MOL     -0.535022
     11 C5          5.2780    5.1470   -2.4480 c3        1 MOL     -0.095059
     12 C6          6.6630    5.1740   -1.8420 c         1 MOL      0.690119
     13 O3          7.5780    4.6160   -2.5150 o         1 MOL     -0.727559
     14 O4          6.8830    5.9390   -0.8750 o         1 MOL     -0.727559
     15 H4          2.7810    5.6640   -2.9340 hn        1 MOL      0.326039
     16 H5          4.6600    6.5600   -0.9040 h1        1 MOL      0.043680
     17 H6          5.2090    5.7850   -3.3290 hc        1 MOL     -0.002939
     18 H7          5.0850    4.1440   -2.8170 hc        1 MOL     -0.002939
     19 N2          4.6750    4.7130    0.9330 n         1 MOL     -0.509196
     20 C7          4.7110    3.7800    1.9960 c3        1 MOL      0.303489
     21 C8          3.2810    3.6100    2.6800 c         1 MOL      0.444880
     22 O5          2.3880    4.4400    2.4810 o         1 MOL     -0.518499
     23 C9          5.7760    4.3580    2.9250 c3        1 MOL     -0.505709
     24 H8          5.2050    5.5400    1.1620 hn        1 MOL      0.286244
     25 H9          4.9820    2.7690    1.6920 h1        1 MOL      0.067284
     26 H10         6.6930    4.4730    2.3580 hc        1 MOL      0.132893
     27 H11         5.3980    5.2910    3.3510 hc        1 MOL      0.132893
     28 H12         5.8950    3.7900    3.8510 hc        1 MOL      0.132893
     29 N3          2.9600    2.5040    3.4210 n         1 MOL     -0.435786
     30 C10         3.8160    1.3470    3.7920 c3        1 MOL      0.107617
     31 C11         4.1560    0.3830    2.5860 c         1 MOL      0.143369
     32 O6          3.3440    0.2480    1.6770 o         1 MOL     -0.362737
     33 C12         3.2870    0.4090    4.9590 c3        1 MOL     -0.232247
     34 C13         1.9430   -0.2490    4.8440 c         1 MOL      0.650009
     35 O7          1.6610   -1.2460    5.5400 o         1 MOL     -0.638135
     36 O8          1.1570    0.2530    3.9660 o         1 MOL     -0.638135
     37 H13         2.0120    2.3340    3.7020 hn        1 MOL      0.285036
     38 H14         4.7840    1.7420    4.1020 h1        1 MOL      0.018546
     39 H15         3.2720    1.0470    5.8440 hc        1 MOL      0.047892
     40 H16         4.0420   -0.3580    5.0770 hc        1 MOL      0.047892
     41 N4          5.3240   -0.1870    2.5580 n         1 MOL     -0.083360
     42 C14         5.8210   -1.1310    1.5640 c3        1 MOL     -0.000912
     43 C15         7.0980   -0.6520    0.7050 c         1 MOL      0.471265
     44 O9          7.6630    0.4400    0.9270 o         1 MOL     -0.508949
     45 H17         5.9100    0.0080    3.3510 hn        1 MOL      0.187996
     46 H18         5.0260   -1.2540    0.8250 h1        1 MOL      0.021886
     47 H19         6.0640   -2.0560    2.0890 h1        1 MOL      0.021886
     48 N5          7.5360   -1.3540   -0.3200 n         1 MOL     -0.396971
     49 C16         7.0270   -2.5690   -0.8830 c3        1 MOL      0.249403
     50 C17         5.7710   -2.4440   -1.7970 c         1 MOL      0.329080
     51 O10         5.2210   -1.3680   -1.8160 o         1 MOL     -0.376753
     52 C18         8.2330   -3.3270   -1.5760 c3        1 MOL     -0.398780
     53 C19         8.3340   -2.8180   -2.9970 c         1 MOL      0.707097
     54 N6          8.0680   -3.5040   -4.0580 n         1 MOL     -0.779949
     55 O11         8.7780   -1.7200   -3.2480 o         1 MOL     -0.514158
     56 H20         8.4220   -1.0440   -0.7150 hn        1 MOL      0.283209
     57 H21         6.7070   -3.2140   -0.0550 h1        1 MOL      0.000767
     58 H22         7.9620   -4.3810   -1.6610 hc        1 MOL      0.100440
     59 H23         9.1160   -3.2490   -0.9510 hc        1 MOL      0.100440
     60 H24         7.7970   -4.4770   -4.0030 hn        1 MOL      0.355661
     61 H25         8.2910   -3.0930   -4.9450 hn        1 MOL      0.355661
     62 N7          5.4110   -3.5170   -2.5360 n         1 MOL     -0.153008
     63 C20         4.2330   -3.5770   -3.3810 c3        1 MOL     -0.427800
     64 C21         2.8550   -4.1170   -2.8580 c         1 MOL      0.505367
     65 O12         1.8890   -4.0690   -3.6230 o         1 MOL     -0.517764
     66 H26         5.9150   -4.3890   -2.4120 hn        1 MOL      0.191882
     67 H27         4.5510   -4.2510   -4.1690 h1        1 MOL      0.183890
     68 H28         3.9930   -2.5730   -3.7490 h1        1 MOL      0.183890
     69 N8          2.7310   -4.5580   -1.6210 n         1 MOL     -0.239245
     70 C22         1.5340   -5.2160   -1.0430 c3        1 MOL     -0.143579
     71 C23         0.4240   -4.1820   -0.6370 c         1 MOL      0.692533
     72 O13         0.7560   -3.0640   -0.1300 o         1 MOL     -0.708496
     73 C24         1.9030   -6.1990    0.0610 c3        1 MOL      0.568750
     74 C25         2.7720   -7.3040   -0.3670 c3        1 MOL     -0.374616
     75 O14         2.3050   -5.6500    1.2430 oh        1 MOL     -0.658115
     76 H29         3.5590   -4.4360   -1.0620 hn        1 MOL      0.171053
     77 H30         1.1030   -5.7870   -1.8650 h1        1 MOL      0.071486
     78 H31         0.9910   -6.7410    0.3280 h1        1 MOL     -0.040677
     79 H32         1.8760   -6.1590    1.9440 ho        1 MOL      0.426091
     80 H33         2.6170   -8.1840    0.2500 hc        1 MOL      0.074002
     81 H34         2.6670   -7.5290   -1.4340 hc        1 MOL      0.074002
     82 H35         3.8010   -7.0040   -0.1820 hc        1 MOL      0.074002
     83 N9         -0.8660   -4.5160   -0.9110 n         1 MOL     -0.490452
     84 C26        -2.0520   -3.6290   -0.8740 c3        1 MOL      0.004316
     85 C27        -2.6260   -3.6570    0.5260 c         1 MOL      0.342171
     86 O15        -2.7050   -4.7400    1.1390 o         1 MOL     -0.544452
     87 C28        -3.0850   -3.9550   -2.0120 c3        1 MOL      0.208325
     88 C29        -4.2660   -3.0770   -1.8870 c3        1 MOL      0.016207
     89 C30        -2.4160   -3.7250   -3.3620 c3        1 MOL     -0.309533
     90 C31        -5.2420   -3.1640   -3.1180 c3        1 MOL     -0.208089
     91 H36        -1.1530   -5.4680   -1.0940 hn        1 MOL      0.268348
     92 H37        -1.7230   -2.6150   -1.1030 h1        1 MOL      0.201554
     93 H38        -3.4670   -4.9690   -1.8600 hc        1 MOL     -0.009119
     94 H39        -3.9520   -2.0310   -1.9310 hc        1 MOL      0.032144
     95 H40        -4.7570   -3.2580   -0.9270 hc        1 MOL      0.032144
     96 H41        -1.9760   -2.7290   -3.4450 hc        1 MOL      0.072317
     97 H42        -1.5880   -4.4280   -3.4490 hc        1 MOL      0.072317
     98 H43        -3.0800   -4.0060   -4.1890 hc        1 MOL      0.072317
     99 H44        -5.5910   -4.1920   -3.2720 hc        1 MOL      0.036096
    100 H45        -6.0710   -2.4740   -2.9360 hc        1 MOL      0.036096
    101 H46        -4.8090   -2.6010   -3.9440 hc        1 MOL      0.036096
    102 N10        -3.0570   -2.5170    1.0530 n         1 MOL      0.050933
    103 C32        -3.7310   -2.3540    2.3830 c3        1 MOL      0.064702
    104 C33        -5.1140   -1.7410    2.2180 c         1 MOL      0.453064
    105 O16        -5.9070   -1.8920    3.1520 o         1 MOL     -0.553451
    106 C34        -2.8030   -1.6570    3.3840 c3        1 MOL     -0.187550
    107 C35        -1.5840   -2.5720    3.6990 c         1 MOL      0.619701
    108 O17        -0.5320   -2.4320    3.0160 o         1 MOL     -0.632801
    109 O18        -1.7020   -3.4280    4.5420 o         1 MOL     -0.632801
    110 H47        -2.8540   -1.6740    0.5280 hn        1 MOL     -0.222843
    111 H48        -3.9020   -3.3300    2.8200 h1        1 MOL      0.070100
    112 H49        -3.3370   -1.3950    4.3090 hc        1 MOL      0.075767
    113 H50        -2.4620   -0.7430    2.9090 hc        1 MOL      0.075767
    114 N11        -5.3580   -0.7750    1.3180 n         1 MOL     -0.565184
    115 C36        -6.6040   -0.0350    1.0900 c3        1 MOL      0.758806
    116 C37        -6.3710    1.4530    0.7100 c         1 MOL      0.064225
    117 O19        -6.9580    2.0000   -0.2300 o         1 MOL     -0.450084
    118 C38        -7.4790   -0.8020    0.0160 c3        1 MOL     -0.523118
    119 C39        -8.9020   -0.3410   -0.1630 ca        1 MOL      0.248729
    120 C40        -9.6060    0.2820    0.8570 ca        1 MOL     -0.190583
    121 C41        -9.5180   -0.6080   -1.4270 ca        1 MOL     -0.190583
    122 C42       -10.9850    0.5710    0.7560 ca        1 MOL     -0.128824
    123 C43       -10.9140   -0.4170   -1.5180 ca        1 MOL     -0.128824
    124 C44       -11.5950    0.1080   -0.4370 ca        1 MOL     -0.131223
    125 H51        -4.5530   -0.4320    0.8130 hn        1 MOL      0.171725
    126 H52        -7.1610   -0.0120    2.0340 h1        1 MOL     -0.076654
    127 H53        -7.5560   -1.8360    0.3370 hc        1 MOL      0.142899
    128 H54        -6.9600   -0.6050   -0.9250 hc        1 MOL      0.142899
    129 H55        -9.1360    0.5580    1.7910 ha        1 MOL      0.126896
    130 H56        -8.9510   -1.0320   -2.2350 ha        1 MOL      0.126896
    131 H57       -11.5740    1.1260    1.4640 ha        1 MOL      0.114558
    132 H58       -11.5100   -0.5910   -2.3950 ha        1 MOL      0.114558
    133 H59       -12.6630    0.2260   -0.5360 ha        1 MOL      0.083069
    134 N12        -5.3340    2.1890    1.1510 n         1 MOL      0.077083
    135 C45        -4.8880    3.4890    0.6310 c3        1 MOL      0.006068
    136 C46        -4.5100    3.4840   -0.8600 c         1 MOL      0.238128
    137 O20        -4.6150    4.4900   -1.5670 o         1 MOL     -0.502531
    138 C47        -3.6050    3.8410    1.3560 c3        1 MOL      0.023177
    139 C48        -3.9630    3.3050    2.7390 c3        1 MOL     -0.218252
    140 C49        -4.7400    2.0120    2.4220 c3        1 MOL      0.001122
    141 H60        -5.7500    4.1400    0.7740 h1        1 MOL      0.072513
    142 H61        -2.6750    3.4350    0.9700 hc        1 MOL      0.044623
    143 H62        -3.5510    4.9260    1.3720 hc        1 MOL      0.044623
    144 H63        -3.0670    3.1460    3.3410 hc        1 MOL      0.076706
    145 H64        -4.6890    3.8870    3.3140 hc        1 MOL      0.076706
    146 H65        -4.1290    1.1180    2.4790 h1        1 MOL      0.037816
    147 H66        -5.5190    1.9300    3.1770 h1        1 MOL      0.037816
    148 N13        -4.1070    2.3340   -1.4780 n         1 MOL     -0.034941
    149 C50        -3.6030    2.2230   -2.8360 c3        1 MOL     -0.163005
    150 C51        -4.6960    2.4210   -3.9430 c         1 MOL      0.413086
    151 O21        -4.3070    2.7920   -5.0500 o         1 MOL     -0.544900
    152 C52        -2.9580    0.8920   -3.0450 c3        1 MOL     -0.175838
    153 C53        -1.7410    0.5740   -2.0670 c3        1 MOL     -0.142064
    154 C54        -2.1750   -0.0060   -0.6900 c         1 MOL      0.359373
    155 O22        -1.2540   -0.5260    0.0140 o         1 MOL     -0.515439
    156 O23        -3.3280    0.0560   -0.2780 o         1 MOL     -0.515439
    157 H67        -4.1530    1.5350   -0.8450 hn        1 MOL      0.239462
    158 H68        -2.8640    2.9910   -3.0520 h1        1 MOL      0.138723
    159 H69        -2.5120    0.7620   -4.0360 hc        1 MOL      0.089232
    160 H70        -3.6810    0.1220   -2.7850 hc        1 MOL      0.089232
    161 H71        -1.2330    1.5070   -1.8630 hc        1 MOL      0.087902
    162 H72        -1.1630   -0.1890   -2.5770 hc        1 MOL      0.087902
    163 N14        -5.9440    2.2660   -3.5470 n         1 MOL     -0.070439
    164 C55        -7.1910    2.5700   -4.2340 c3        1 MOL     -0.293869
    165 H73        -7.2250    3.6330   -4.4700 h1        1 MOL      0.109764
    166 H74        -7.2490    1.9920   -5.1570 h1        1 MOL      0.109764
    167 H75        -8.0330    2.3140   -3.5910 h1        1 MOL      0.109764
    168 H76        -5.9760    1.9680   -2.5810 hn        1 MOL      0.143296
    169 Ca1         0.7930   -0.8540    1.5270 Ca        1 MOL      1.615507
    170 O24         2.5250   -2.5170    2.6610 oh        1 MOL     -0.807702
    171 H77         3.3360   -2.8030    2.2320 ho        1 MOL      0.400744
    172 H78         2.2060   -3.3020    3.1050 ho        1 MOL      0.400744
    173 O25         2.4770   -1.0660   -0.6590 oh        1 MOL     -0.807702
    174 H79         3.3280   -1.0660   -1.1050 ho        1 MOL      0.400744
    175 H80         2.0980   -1.9170   -0.8870 ho        1 MOL      0.400744
    176 O26        -1.1910    1.1650    2.2060 oh        1 MOL     -0.807702
    177 H81        -1.8500    0.9200    1.5540 ho        1 MOL      0.400744
    178 H82        -0.7550    1.9250    1.8350 ho        1 MOL      0.400744
    179 O27         1.0320    1.4570    0.1690 oh        1 MOL     -0.807702
    180 H83         1.7160    1.6980   -0.4640 ho        1 MOL      0.400744
    181 H84         0.7460    2.2940    0.5400 ho        1 MOL      0.400744
@<TRIPOS>BOND
     1    1    2 1   
     2    1    4 1   
     3    1    5 1   
     4    1    6 1   
     5    2    3 2   
     6    2    7 1   
     7    7    8 1   
     8    7   15 1   
     9    8    9 1   
    10    8   11 1   
    11    8   16 1   
    12    9   10 2   
    13    9   19 1   
    14   11   12 1   
    15   11   17 1   
    16   11   18 1   
    17   12   13 1   
    18   12   14 1   
    19   19   20 1   
    20   19   24 1   
    21   20   21 1   
    22   20   23 1   
    23   20   25 1   
    24   21   22 2   
    25   21   29 1   
    26   23   26 1   
    27   23   27 1   
    28   23   28 1   
    29   29   30 1   
    30   29   37 1   
    31   30   31 1   
    32   30   33 1   
    33   30   38 1   
    34   31   32 2   
    35   31   41 1   
    36   33   34 1   
    37   33   39 1   
    38   33   40 1   
    39   34   35 1   
    40   34   36 1   
    41   41   42 1   
    42   41   45 1   
    43   42   43 1   
    44   42   46 1   
    45   42   47 1   
    46   43   44 2   
    47   43   48 1   
    48   48   49 1   
    49   48   56 1   
    50   49   50 1   
    51   49   52 1   
    52   49   57 1   
    53   50   51 2   
    54   50   62 1   
    55   52   53 1   
    56   52   58 1   
    57   52   59 1   
    58   53   54 1   
    59   53   55 2   
    60   54   60 1   
    61   54   61 1   
    62   62   63 1   
    63   62   66 1   
    64   63   64 1   
    65   63   67 1   
    66   63   68 1   
    67   64   65 2   
    68   64   69 1   
    69   69   70 1   
    70   69   76 1   
    71   70   71 1   
    72   70   73 1   
    73   70   77 1   
    74   71   72 2   
    75   71   83 1   
    76   73   74 1   
    77   73   75 1   
    78   73   78 1   
    79   74   80 1   
    80   74   81 1   
    81   74   82 1   
    82   75   79 1   
    83   83   84 1   
    84   83   91 1   
    85   84   85 1   
    86   84   87 1   
    87   84   92 1   
    88   85   86 2   
    89   85  102 1   
    90   87   88 1   
    91   87   89 1   
    92   87   93 1   
    93   88   90 1   
    94   88   94 1   
    95   88   95 1   
    96   89   96 1   
    97   89   97 1   
    98   89   98 1   
    99   90   99 1   
   100   90  100 1   
   101   90  101 1   
   102  102  103 1   
   103  102  110 1   
   104  103  104 1   
   105  103  106 1   
   106  103  111 1   
   107  104  105 2   
   108  104  114 1   
   109  106  107 1   
   110  106  112 1   
   111  106  113 1   
   112  107  108 1   
   113  107  109 1   
   114  114  115 1   
   115  114  125 1   
   116  115  116 1   
   117  115  118 1   
   118  115  126 1   
   119  116  117 2   
   120  116  134 1   
   121  118  119 1   
   122  118  127 1   
   123  118  128 1   
   124  119  120 ar  
   125  119  121 ar  
   126  120  122 ar  
   127  120  129 1   
   128  121  123 ar  
   129  121  130 1   
   130  122  124 ar  
   131  122  131 1   
   132  123  124 ar  
   133  123  132 1   
   134  124  133 1   
   135  134  135 1   
   136  134  140 1   
   137  135  136 1   
   138  135  138 1   
   139  135  141 1   
   140  136  137 2   
   141  136  148 1   
   142  138  139 1   
   143  138  142 1   
   144  138  143 1   
   145  139  140 1   
   146  139  144 1   
   147  139  145 1   
   148  140  146 1   
   149  140  147 1   
   150  148  149 1   
   151  148  157 1   
   152  149  150 1   
   153  149  152 1   
   154  149  158 1   
   155  150  151 2   
   156  150  163 1   
   157  152  153 1   
   158  152  159 1   
   159  152  160 1   
   160  153  154 1   
   161  153  161 1   
   162  153  162 1   
   163  154  155 1   
   164  154  156 1   
   165  163  164 1   
   166  163  168 1   
   167  164  165 1   
   168  164  166 1   
   169  164  167 1   
   170  170  171 1   
   171  170  172 1   
   172  173  174 1   
   173  173  175 1   
   174  176  177 1   
   175  176  178 1   
   176  179  180 1   
   177  179  181 1   
@<TRIPOS>SUBSTRUCTURE
     1 MOL         1 TEMP              0 ****  ****    0 ROOT
