@<TRIPOS>MOLECULE
MOL
  195   189     1     0     0
SMALL
resp


@<TRIPOS>ATOM
      1 C1          0.7290    4.7610    3.0500 c3        1 MOL     -0.610392
      2 C2         -0.0380    4.4740    1.7770 c         1 MOL      0.824233
      3 O1         -0.3950    3.3810    1.5560 o         1 MOL     -0.507852
      4 H1          1.7210    4.3130    2.9850 hc        1 MOL      0.140737
      5 H2          0.8250    5.8380    3.1840 hc        1 MOL      0.140737
      6 H3          0.1950    4.3350    3.9000 hc        1 MOL      0.140737
      7 N1         -0.3540    5.4890    1.0120 n         1 MOL     -0.557085
      8 C3         -1.1540    5.4690   -0.2200 c3        1 MOL     -0.407914
      9 C4         -2.5230    4.7690   -0.0680 c         1 MOL      0.887047
     10 O2         -2.9640    4.0200   -0.9280 o         1 MOL     -0.593709
     11 C5         -0.4370    4.9980   -1.4970 c3        1 MOL     -0.260045
     12 C6          1.0030    5.5630   -1.5950 c         1 MOL      1.098328
     13 O3          1.1240    6.8150   -1.5230 o         1 MOL     -0.858471
     14 O4          1.9320    4.7680   -1.7470 o         1 MOL     -0.858471
     15 H4          0.1210    6.3390    1.2780 hn        1 MOL      0.250954
     16 H5         -1.4170    6.5140   -0.3630 h1        1 MOL      0.193865
     17 H6         -0.9690    5.2660   -2.4010 hc        1 MOL      0.109931
     18 H7         -0.4510    3.9190   -1.5810 hc        1 MOL      0.109931
     19 N2         -3.1850    4.9570    1.0170 n         1 MOL     -0.792146
     20 C7         -4.5500    4.4310    1.2700 c3        1 MOL      0.236695
     21 C8         -5.6120    5.2010    0.3970 c         1 MOL      0.441651
     22 O5         -5.3960    6.2670   -0.1380 o         1 MOL     -0.534736
     23 C9         -4.9660    4.5210    2.7500 c3        1 MOL     -0.126483
     24 C10        -4.6410    5.8110    3.4980 c3        1 MOL      0.216273
     25 C11        -4.1880    3.4670    3.4800 c3        1 MOL     -0.116372
     26 C12        -5.7360    6.9200    3.3540 c3        1 MOL     -0.038243
     27 H8         -2.7740    5.4860    1.7750 hn        1 MOL      0.458614
     28 H9         -4.6070    3.3840    0.9850 h1        1 MOL      0.128365
     29 H10        -6.0270    4.3110    2.7960 hc        1 MOL      0.122356
     30 H11        -3.7050    6.2130    3.1290 hc        1 MOL     -0.090588
     31 H12        -4.5150    5.5650    4.5520 hc        1 MOL     -0.090588
     32 H13        -4.5030    3.2430    4.5020 hc        1 MOL      0.020462
     33 H14        -4.2050    2.4980    2.9820 hc        1 MOL      0.020462
     34 H15        -3.1170    3.7020    3.4700 hc        1 MOL      0.020462
     35 H16        -5.5800    7.6180    4.1760 hc        1 MOL      0.000083
     36 H17        -5.5010    7.4740    2.4350 hc        1 MOL      0.000083
     37 H18        -6.7350    6.5050    3.3870 hc        1 MOL      0.000083
     38 N3         -6.8310    4.6010    0.1740 n         1 MOL     -0.368354
     39 C13        -7.4710    3.3080    0.4840 c3        1 MOL     -0.171344
     40 C14        -6.7470    2.0710   -0.1770 c         1 MOL      0.503315
     41 O6         -6.8450    0.9330    0.3060 o         1 MOL     -0.526419
     42 C15        -9.0150    3.3580    0.1630 c3        1 MOL      0.033113
     43 C16        -9.6960    4.6930    0.1910 c         1 MOL      0.669136
     44 O7        -10.1240    5.1450    1.2740 o         1 MOL     -0.727263
     45 O8         -9.8150    5.1890   -0.9480 o         1 MOL     -0.727263
     46 H19        -7.3740    5.0710   -0.5450 hn        1 MOL      0.263023
     47 H20        -7.2820    3.1410    1.5450 h1        1 MOL      0.058779
     48 H21        -9.5960    2.7000    0.8020 hc        1 MOL     -0.000239
     49 H22        -9.1870    2.9160   -0.8210 hc        1 MOL     -0.000239
     50 N4         -5.9330    2.3650   -1.2790 n         1 MOL     -0.408687
     51 C17        -5.0720    1.4500   -2.0300 c3        1 MOL      0.007982
     52 C18        -5.6500    0.1180   -2.5140 c         1 MOL      0.439190
     53 O9         -6.8590   -0.0860   -2.4950 o         1 MOL     -0.519926
     54 H23        -5.9470    3.3220   -1.5910 hn        1 MOL      0.295413
     55 H24        -4.2070    1.2770   -1.3750 h1        1 MOL      0.066645
     56 H25        -4.6920    1.9490   -2.9190 h1        1 MOL      0.066645
     57 N5         -4.8000   -0.7580   -3.0060 n         1 MOL     -0.334774
     58 C19        -5.1480   -2.0380   -3.5730 c3        1 MOL      0.043447
     59 C20        -5.8960   -2.9080   -2.5840 c         1 MOL      0.359796
     60 O10        -6.4280   -3.9100   -3.0240 o         1 MOL     -0.544714
     61 C21        -3.8550   -2.6630   -4.0840 c3        1 MOL     -0.193331
     62 C22        -2.6950   -2.4970   -3.1320 c         1 MOL      0.686256
     63 O11        -1.7560   -1.7440   -3.4780 o         1 MOL     -0.660831
     64 O12        -2.7420   -2.9200   -1.9570 o         1 MOL     -0.660831
     65 H26        -3.8140   -0.5530   -3.0800 hn        1 MOL      0.215137
     66 H27        -5.8230   -1.8340   -4.4030 h1        1 MOL      0.089525
     67 H28        -3.6910   -2.1600   -5.0380 hc        1 MOL      0.030073
     68 H29        -4.0240   -3.7200   -4.2940 hc        1 MOL      0.030073
     69 N6         -5.8790   -2.6480   -1.2580 n         1 MOL      0.003396
     70 C23        -6.3480   -3.5580   -0.2400 c3        1 MOL     -0.572808
     71 C24        -5.4640   -4.7040    0.2550 c         1 MOL      0.626757
     72 O13        -5.8920   -5.4830    1.1490 o         1 MOL     -0.631612
     73 H30        -5.2880   -1.9160   -0.9080 hn        1 MOL      0.235445
     74 H31        -7.1460   -4.2130   -0.5800 h1        1 MOL      0.190111
     75 H32        -6.5340   -2.8540    0.5750 h1        1 MOL      0.190111
     76 N7         -4.2980   -4.8180   -0.3720 n         1 MOL      0.004478
     77 C25        -3.2870   -5.9230   -0.1650 c3        1 MOL      0.184009
     78 C26        -3.0290   -6.2280    1.3230 c         1 MOL      0.248725
     79 O14        -2.6960   -7.3780    1.6880 o         1 MOL     -0.486626
     80 C27        -3.6910   -7.1310   -1.0770 c3        1 MOL     -0.020295
     81 C28        -4.0290   -6.7620   -2.5280 c3        1 MOL     -0.111386
     82 C29        -4.4110   -7.9770   -3.4470 c         1 MOL      0.644017
     83 N8         -5.4200   -7.8420   -4.2120 n         1 MOL     -0.731733
     84 O15        -3.7920   -8.9800   -3.5880 o         1 MOL     -0.582130
     85 H33        -3.9380   -4.0030   -0.8360 hn        1 MOL     -0.019875
     86 H34        -2.3380   -5.5170   -0.5230 h1        1 MOL      0.048042
     87 H35        -4.6520   -7.3920   -0.6440 hc        1 MOL      0.003228
     88 H36        -2.9400   -7.9170   -1.1570 hc        1 MOL      0.003228
     89 H37        -3.2450   -6.2420   -3.0790 hc        1 MOL      0.045174
     90 H38        -4.9170   -6.1360   -2.4420 hc        1 MOL      0.045174
     91 H39        -5.8840   -6.9550   -4.3460 hn        1 MOL      0.326690
     92 H40        -5.5780   -8.4890   -4.9750 hn        1 MOL      0.326690
     93 N9         -3.1530   -5.1840    2.2440 n         1 MOL     -0.022653
     94 C30        -2.6110   -5.2060    3.6260 c3        1 MOL     -0.257191
     95 C31        -1.2790   -4.4830    3.7340 c         1 MOL      0.637159
     96 O16        -0.6290   -4.6270    4.7960 o         1 MOL     -0.605974
     97 C32        -3.6990   -4.6500    4.5710 c3        1 MOL      0.231529
     98 C33        -4.2480   -3.2030    4.1890 c3        1 MOL     -0.343014
     99 C34        -4.9030   -5.5950    4.6170 c3        1 MOL     -0.343014
    100 H41        -3.5830   -4.3090    1.9710 hn        1 MOL      0.151776
    101 H42        -2.4450   -6.2590    3.8440 h1        1 MOL      0.146247
    102 H43        -3.3170   -4.5230    5.5860 hc        1 MOL     -0.001443
    103 H44        -4.7120   -3.2250    3.2010 hc        1 MOL      0.085045
    104 H45        -4.9330   -2.8580    4.9620 hc        1 MOL      0.085045
    105 H46        -3.4310   -2.4790    4.2330 hc        1 MOL      0.085045
    106 H47        -5.5610   -5.2560    5.4140 hc        1 MOL      0.085045
    107 H48        -5.4780   -5.6290    3.6920 hc        1 MOL      0.085045
    108 H49        -4.5160   -6.5990    4.7730 hc        1 MOL      0.085045
    109 N10        -0.7910   -3.7340    2.7400 n         1 MOL     -0.495936
    110 C35         0.4380   -2.8820    2.7520 c3        1 MOL      0.243934
    111 C36         1.3700   -3.2080    1.5540 c         1 MOL      0.539772
    112 O17         1.0300   -3.8730    0.6000 o         1 MOL     -0.503488
    113 C37        -0.0420   -1.3880    2.8630 c3        1 MOL     -0.176626
    114 C38         1.0310   -0.5430    3.4630 c         1 MOL      0.643217
    115 N11         0.7780    0.0590    4.5990 n         1 MOL     -0.809972
    116 O18         2.1040   -0.4920    2.9300 o         1 MOL     -0.555946
    117 H50        -1.3380   -3.5910    1.8970 hn        1 MOL      0.203079
    118 H51         1.0740   -3.0870    3.6200 h1        1 MOL      0.051359
    119 H52        -0.9220   -1.2980    3.4950 hc        1 MOL      0.070656
    120 H53        -0.2910   -0.7900    1.9750 hc        1 MOL      0.070656
    121 H54        -0.1290    0.1800    5.0230 hn        1 MOL      0.362755
    122 H55         1.5230    0.5770    5.0420 hn        1 MOL      0.362755
    123 N12         2.6460   -2.7790    1.6190 n         1 MOL     -0.569737
    124 C39         3.5680   -2.8240    0.5130 c3        1 MOL      0.208471
    125 C40         5.0480   -2.5700    0.9460 c         1 MOL      0.408532
    126 O19         5.2630   -1.7680    1.8920 o         1 MOL     -0.500557
    127 C41         3.2430   -1.6760   -0.5470 c3        1 MOL     -0.234868
    128 C42         3.6620   -2.1530   -1.9990 ca        1 MOL     -0.018751
    129 C43         4.8230   -1.6770   -2.5820 ca        1 MOL     -0.093887
    130 C44         2.8640   -3.0780   -2.6630 ca        1 MOL     -0.093887
    131 C45         5.1650   -2.1570   -3.8850 ca        1 MOL     -0.253702
    132 C46         3.1050   -3.4560   -3.9730 ca        1 MOL     -0.253702
    133 C47         4.2430   -2.9830   -4.6200 ca        1 MOL      0.297168
    134 O20         4.4930   -3.3230   -5.8970 oh        1 MOL     -0.486314
    135 H56         2.9430   -2.1300    2.3330 hn        1 MOL      0.292499
    136 H57         3.5610   -3.7270   -0.0950 h1        1 MOL      0.046477
    137 H58         3.8000   -0.8250   -0.1590 hc        1 MOL      0.134555
    138 H59         2.1740   -1.4960   -0.4680 hc        1 MOL      0.134555
    139 H60         5.5280   -1.0650   -2.0220 ha        1 MOL      0.140423
    140 H61         2.0890   -3.4110   -1.9940 ha        1 MOL      0.140423
    141 H62         6.0740   -1.8300   -4.3620 ha        1 MOL      0.146201
    142 H63         2.4680   -4.1040   -4.5470 ha        1 MOL      0.146201
    143 H64         5.2870   -2.9640   -6.3110 ho        1 MOL      0.354693
    144 N13         6.0850   -3.1510    0.3030 n         1 MOL     -0.444493
    145 C48         7.5160   -2.6560    0.3870 c3        1 MOL      0.145406
    146 C49         7.9400   -1.6280   -0.7280 c         1 MOL      0.488211
    147 O21         8.2520   -2.0910   -1.7690 o         1 MOL     -0.563176
    148 C50         8.4200   -3.9350    0.2650 c3        1 MOL      0.066948
    149 C51         8.2060   -4.8980    1.4380 c3        1 MOL     -0.224843
    150 C52         9.2180   -6.0520    1.4290 c         1 MOL      0.715136
    151 O22         9.3200   -6.7440    0.4040 o         1 MOL     -0.696874
    152 O23         9.8610   -6.3400    2.4750 o         1 MOL     -0.696874
    153 H65         5.8680   -3.8440   -0.4020 hn        1 MOL      0.300343
    154 H66         7.6760   -2.1280    1.3370 h1        1 MOL      0.079368
    155 H67         9.4940   -3.7220    0.3130 hc        1 MOL      0.013638
    156 H68         8.2150   -4.3090   -0.7290 hc        1 MOL      0.013638
    157 H69         7.1700   -5.2030    1.2830 hc        1 MOL      0.021748
    158 H70         8.2890   -4.4060    2.4090 hc        1 MOL      0.021748
    159 N14         7.8560   -0.3020   -0.5730 n         1 MOL     -0.552693
    160 C53         7.0650    0.5060    0.3910 c3        1 MOL     -0.002854
    161 C54         7.6160    0.3810    1.7690 c         1 MOL      0.467235
    162 O24         8.8160    0.0520    1.9810 o         1 MOL     -0.525410
    163 C55         6.9840    2.0050    0.0650 c3        1 MOL     -0.005569
    164 C56         6.1550    2.2490   -1.1860 c3        1 MOL     -0.066146
    165 C57         6.0750    3.6870   -1.6310 c         1 MOL      0.845255
    166 O25         4.9900    4.2730   -1.7840 o         1 MOL     -0.748018
    167 O26         7.1060    4.3260   -1.9270 o         1 MOL     -0.748018
    168 H71         8.1090    0.2110   -1.4060 hn        1 MOL      0.371656
    169 H72         6.0540    0.0830    0.4770 h1        1 MOL      0.092905
    170 H73         8.0110    2.3880   -0.0090 hc        1 MOL      0.015962
    171 H74         6.4940    2.4980    0.9030 hc        1 MOL      0.015962
    172 H75         5.1880    1.8160   -0.9270 hc        1 MOL     -0.029682
    173 H76         6.5860    1.7000   -2.0270 hc        1 MOL     -0.029682
    174 N15         6.8290    0.7170    2.8350 n         1 MOL     -0.298985
    175 C58         7.2390    0.7800    4.2640 c3        1 MOL     -0.138600
    176 H77         8.2590    0.4090    4.3650 h1        1 MOL      0.081397
    177 H78         7.1910    1.8110    4.6110 h1        1 MOL      0.081397
    178 H79         6.5680    0.1640    4.8620 h1        1 MOL      0.081397
    179 H80         5.8580    0.7630    2.5540 hn        1 MOL      0.242197
    180 Ca1         3.8730    6.6210   -1.3170 Ca        1 MOL      1.650870
    181 O27         3.7970    5.2570    0.9300 oh        1 MOL     -0.810348
    182 H81         3.5660    4.3580    0.6920 ho        1 MOL      0.385540
    183 H82         3.7080    5.2910    1.8770 ho        1 MOL      0.385540
    184 O28         6.2900    6.7450   -2.4240 oh        1 MOL     -0.810348
    185 H83         6.5480    5.8390   -2.6080 ho        1 MOL      0.385540
    186 H84         6.7760    7.2710   -3.0700 ho        1 MOL      0.385540
    187 O29         2.8710    6.7350   -4.0290 oh        1 MOL     -0.810348
    188 H85         3.4190    7.2870   -4.5920 ho        1 MOL      0.385540
    189 H86         2.6320    5.9940   -4.5780 ho        1 MOL      0.385540
    190 O30         5.5230    7.6980    0.7580 oh        1 MOL     -0.810348
    191 H87         5.7370    7.3570    1.6270 ho        1 MOL      0.385540
    192 H88         5.4890    8.6490    0.8710 ho        1 MOL      0.385540
    193 O31         4.3390    9.2090   -1.7330 oh        1 MOL     -0.810348
    194 H89         3.9080    9.7830   -2.3640 ho        1 MOL      0.385540
    195 H90         4.5190    9.7800   -0.9800 ho        1 MOL      0.385540
@<TRIPOS>BOND
     1    1    2 1   
     2    1    4 1   
     3    1    5 1   
     4    1    6 1   
     5    2    3 2   
     6    2    7 1   
     7    7    8 1   
     8    7   15 1   
     9    8    9 1   
    10    8   11 1   
    11    8   16 1   
    12    9   10 2   
    13    9   19 1   
    14   11   12 1   
    15   11   17 1   
    16   11   18 1   
    17   12   13 1   
    18   12   14 1   
    19   19   20 1   
    20   19   27 1   
    21   20   21 1   
    22   20   23 1   
    23   20   28 1   
    24   21   22 2   
    25   21   38 1   
    26   23   24 1   
    27   23   25 1   
    28   23   29 1   
    29   24   26 1   
    30   24   30 1   
    31   24   31 1   
    32   25   32 1   
    33   25   33 1   
    34   25   34 1   
    35   26   35 1   
    36   26   36 1   
    37   26   37 1   
    38   38   39 1   
    39   38   46 1   
    40   39   40 1   
    41   39   42 1   
    42   39   47 1   
    43   40   41 2   
    44   40   50 1   
    45   42   43 1   
    46   42   48 1   
    47   42   49 1   
    48   43   44 1   
    49   43   45 1   
    50   50   51 1   
    51   50   54 1   
    52   51   52 1   
    53   51   55 1   
    54   51   56 1   
    55   52   53 2   
    56   52   57 1   
    57   57   58 1   
    58   57   65 1   
    59   58   59 1   
    60   58   61 1   
    61   58   66 1   
    62   59   60 2   
    63   59   69 1   
    64   61   62 1   
    65   61   67 1   
    66   61   68 1   
    67   62   63 1   
    68   62   64 1   
    69   69   70 1   
    70   69   73 1   
    71   70   71 1   
    72   70   74 1   
    73   70   75 1   
    74   71   72 2   
    75   71   76 1   
    76   76   77 1   
    77   76   85 1   
    78   77   78 1   
    79   77   80 1   
    80   77   86 1   
    81   78   79 2   
    82   78   93 1   
    83   80   81 1   
    84   80   87 1   
    85   80   88 1   
    86   81   82 1   
    87   81   89 1   
    88   81   90 1   
    89   82   83 1   
    90   82   84 2   
    91   83   91 1   
    92   83   92 1   
    93   93   94 1   
    94   93  100 1   
    95   94   95 1   
    96   94   97 1   
    97   94  101 1   
    98   95   96 2   
    99   95  109 1   
   100   97   98 1   
   101   97   99 1   
   102   97  102 1   
   103   98  103 1   
   104   98  104 1   
   105   98  105 1   
   106   99  106 1   
   107   99  107 1   
   108   99  108 1   
   109  109  110 1   
   110  109  117 1   
   111  110  111 1   
   112  110  113 1   
   113  110  118 1   
   114  111  112 2   
   115  111  123 1   
   116  113  114 1   
   117  113  119 1   
   118  113  120 1   
   119  114  115 1   
   120  114  116 2   
   121  115  121 1   
   122  115  122 1   
   123  123  124 1   
   124  123  135 1   
   125  124  125 1   
   126  124  127 1   
   127  124  136 1   
   128  125  126 2   
   129  125  144 1   
   130  127  128 1   
   131  127  137 1   
   132  127  138 1   
   133  128  129 ar  
   134  128  130 ar  
   135  129  131 ar  
   136  129  139 1   
   137  130  132 ar  
   138  130  140 1   
   139  131  133 ar  
   140  131  141 1   
   141  132  133 ar  
   142  132  142 1   
   143  133  134 1   
   144  134  143 1   
   145  144  145 1   
   146  144  153 1   
   147  145  146 1   
   148  145  148 1   
   149  145  154 1   
   150  146  147 2   
   151  146  159 1   
   152  148  149 1   
   153  148  155 1   
   154  148  156 1   
   155  149  150 1   
   156  149  157 1   
   157  149  158 1   
   158  150  151 1   
   159  150  152 1   
   160  159  160 1   
   161  159  168 1   
   162  160  161 1   
   163  160  163 1   
   164  160  169 1   
   165  161  162 2   
   166  161  174 1   
   167  163  164 1   
   168  163  170 1   
   169  163  171 1   
   170  164  165 1   
   171  164  172 1   
   172  164  173 1   
   173  165  166 1   
   174  165  167 1   
   175  174  175 1   
   176  174  179 1   
   177  175  176 1   
   178  175  177 1   
   179  175  178 1   
   180  181  182 1   
   181  181  183 1   
   182  184  185 1   
   183  184  186 1   
   184  187  188 1   
   185  187  189 1   
   186  190  191 1   
   187  190  192 1   
   188  193  194 1   
   189  193  195 1   
@<TRIPOS>SUBSTRUCTURE
     1 MOL         1 TEMP              0 ****  ****    0 ROOT
