@<TRIPOS>MOLECULE
MOL
  195   189     1     0     0
SMALL
resp


@<TRIPOS>ATOM
      1 C1          3.2200   -4.5370   -2.9650 c3        1 MOL     -0.057621
      2 C2          2.3480   -4.3710   -1.7320 c         1 MOL      0.453304
      3 O1          2.1720   -3.2310   -1.3670 o         1 MOL     -0.412375
      4 H1          3.1720   -5.5700   -3.3070 hc        1 MOL      0.021357
      5 H2          2.8630   -3.8770   -3.7550 hc        1 MOL      0.021357
      6 H3          4.2510   -4.2850   -2.7180 hc        1 MOL      0.021357
      7 N1          1.9230   -5.4990   -1.0970 n         1 MOL     -0.826368
      8 C3          0.8650   -5.5570   -0.0840 c3        1 MOL     -0.076964
      9 C4         -0.4960   -5.0100   -0.5300 c         1 MOL      0.827254
     10 O2         -1.2420   -4.5450    0.3210 o         1 MOL     -0.585740
     11 C5          1.4710   -5.1320    1.3050 c3        1 MOL     -0.463320
     12 C6          2.9280   -5.6000    1.4910 c         1 MOL      0.876958
     13 O3          3.8500   -4.7870    1.4940 o         1 MOL     -0.728476
     14 O4          3.1580   -6.7860    1.7940 o         1 MOL     -0.728476
     15 H4          2.3160   -6.3920   -1.3660 hn        1 MOL      0.443536
     16 H5          0.6380   -6.6180    0.0690 h1        1 MOL      0.145591
     17 H6          0.8360   -5.5430    2.0820 hc        1 MOL      0.155314
     18 H7          1.5830   -4.0630    1.4810 hc        1 MOL      0.155314
     19 N2         -0.7410   -5.2160   -1.7940 n         1 MOL     -0.723842
     20 C7         -2.0000   -4.9330   -2.4980 c3        1 MOL      0.097013
     21 C8         -3.0780   -6.0330   -2.2240 c         1 MOL      0.533646
     22 O5         -2.9590   -7.1280   -2.8500 o         1 MOL     -0.599093
     23 C9         -1.7400   -4.8150   -4.0050 c3        1 MOL      0.143241
     24 C10        -0.9300   -3.4900   -4.3080 c3        1 MOL     -0.095187
     25 C11        -3.0070   -4.8380   -4.9010 c3        1 MOL     -0.355182
     26 C12        -1.7600   -2.2160   -4.3180 c3        1 MOL     -0.046712
     27 H8          0.0140   -5.6080   -2.3230 hn        1 MOL      0.403143
     28 H9         -2.4370   -4.0060   -2.1360 h1        1 MOL      0.215086
     29 H10        -1.1040   -5.6490   -4.2960 hc        1 MOL     -0.029839
     30 H11        -0.5750   -3.5690   -5.3330 hc        1 MOL      0.044425
     31 H12        -0.0920   -3.3960   -3.6170 hc        1 MOL      0.044425
     32 H13        -3.7230   -4.1430   -4.4610 hc        1 MOL      0.091877
     33 H14        -2.8560   -4.6540   -5.9610 hc        1 MOL      0.091877
     34 H15        -3.4790   -5.8270   -4.8800 hc        1 MOL      0.091877
     35 H16        -2.6190   -2.2770   -4.9760 hc        1 MOL      0.010930
     36 H17        -2.0770   -2.0390   -3.2950 hc        1 MOL      0.010930
     37 H18        -1.1820   -1.3200   -4.5660 hc        1 MOL      0.010930
     38 N3         -4.1080   -5.8240   -1.4100 n         1 MOL     -0.464287
     39 C13        -4.4470   -4.5600   -0.6840 c3        1 MOL      0.040290
     40 C14        -5.2190   -4.8100    0.5910 c         1 MOL      0.538760
     41 O6         -6.0180   -5.7040    0.6950 o         1 MOL     -0.528675
     42 C15        -5.1560   -3.6090   -1.6050 c3        1 MOL     -0.140911
     43 C16        -6.0510   -2.4840   -1.0150 c         1 MOL      0.767320
     44 O7         -7.2840   -2.5600   -1.0400 o         1 MOL     -0.731298
     45 O8         -5.6360   -1.4290   -0.5580 o         1 MOL     -0.731298
     46 H19        -4.8960   -6.4570   -1.4820 hn        1 MOL      0.303995
     47 H20        -3.5010   -4.1210   -0.3700 h1        1 MOL     -0.034162
     48 H21        -5.8300   -4.2310   -2.2050 hc        1 MOL      0.014882
     49 H22        -4.4570   -3.1960   -2.3230 hc        1 MOL      0.014882
     50 N4         -4.9020   -3.9880    1.6450 n         1 MOL     -0.246164
     51 C17        -5.4270   -4.1750    2.9810 c3        1 MOL     -0.296287
     52 C18        -6.3400   -2.9670    3.4450 c         1 MOL      0.707985
     53 O9         -6.9330   -3.0390    4.5310 o         1 MOL     -0.633959
     54 H23        -4.2660   -3.2110    1.5090 hn        1 MOL      0.289728
     55 H24        -4.5680   -4.3220    3.6290 h1        1 MOL      0.121954
     56 H25        -6.0930   -5.0490    2.9950 h1        1 MOL      0.121954
     57 N5         -6.5430   -1.8580    2.7280 n         1 MOL     -0.522258
     58 C19        -7.1380   -0.5550    3.2420 c3        1 MOL      0.138816
     59 C20        -7.8460    0.3200    2.1450 c         1 MOL      0.317680
     60 O10        -8.7020    1.1120    2.4960 o         1 MOL     -0.565007
     61 C21        -5.9790    0.2950    3.8150 c3        1 MOL     -0.330485
     62 C22        -4.7870    0.5590    2.8910 c         1 MOL      0.761757
     63 O11        -4.8620    1.5660    2.1390 o         1 MOL     -0.713658
     64 O12        -3.7660   -0.2050    2.8840 o         1 MOL     -0.713658
     65 H26        -5.9750   -1.8160    1.8930 hn        1 MOL      0.230612
     66 H27        -7.8890   -0.7890    3.9970 h1        1 MOL      0.100260
     67 H28        -5.6220   -0.2770    4.6700 hc        1 MOL      0.069221
     68 H29        -6.3810    1.2510    4.1680 hc        1 MOL      0.069221
     69 N6         -7.5320    0.1330    0.8820 n         1 MOL     -0.015204
     70 C23        -8.1390    0.8590   -0.2330 c3        1 MOL     -0.260283
     71 C24        -7.7150    2.2780   -0.4580 c         1 MOL      0.447052
     72 O13        -8.2530    2.9890   -1.3290 o         1 MOL     -0.603205
     73 H30        -6.9480   -0.6270    0.5730 hn        1 MOL      0.207355
     74 H31        -9.2110    0.9730   -0.0810 h1        1 MOL      0.120284
     75 H32        -8.0760    0.2550   -1.1420 h1        1 MOL      0.120284
     76 N7         -6.8290    2.7920    0.3570 n         1 MOL      0.033350
     77 C25        -6.2530    4.1220    0.3080 c3        1 MOL      0.115869
     78 C26        -5.4490    4.5220   -0.9740 c         1 MOL      0.436534
     79 O14        -5.4210    5.6960   -1.3520 o         1 MOL     -0.515839
     80 C27        -7.2740    5.2150    0.6920 c3        1 MOL     -0.209435
     81 C28        -8.0300    4.8460    1.9910 c3        1 MOL      0.074935
     82 C29        -8.8370    5.9450    2.6220 c         1 MOL      0.587686
     83 N8         -9.9730    5.6060    3.2230 n         1 MOL     -0.804835
     84 O15        -8.4150    7.1240    2.6450 o         1 MOL     -0.584972
     85 H33        -6.3700    2.1230    0.9690 hn        1 MOL      0.055421
     86 H34        -5.4970    4.1180    1.0910 h1        1 MOL      0.074179
     87 H35        -8.0790    5.4060   -0.0100 hc        1 MOL      0.055033
     88 H36        -6.7020    6.1060    0.9690 hc        1 MOL      0.055033
     89 H37        -7.3440    4.6150    2.8150 hc        1 MOL      0.000727
     90 H38        -8.5870    3.9090    1.8860 hc        1 MOL      0.000727
     91 H39       -10.2570    4.6370    3.2390 hn        1 MOL      0.356291
     92 H40       -10.5140    6.3600    3.6270 hn        1 MOL      0.356291
     93 N9         -4.7690    3.5630   -1.6700 n         1 MOL     -0.356448
     94 C30        -3.9960    3.8120   -2.8780 c3        1 MOL     -0.088820
     95 C31        -2.5890    3.2300   -2.9330 c         1 MOL      0.460787
     96 O16        -1.9010    3.2640   -3.9770 o         1 MOL     -0.549905
     97 C32        -4.8840    3.2370   -4.0190 c3        1 MOL      0.434500
     98 C33        -5.1580    1.7160   -3.8890 c3        1 MOL     -0.426493
     99 C34        -6.1520    4.0630   -4.2200 c3        1 MOL     -0.426493
    100 H41        -4.7680    2.6140   -1.3540 hn        1 MOL      0.253251
    101 H42        -3.9190    4.8690   -3.1530 h1        1 MOL      0.113386
    102 H43        -4.3890    3.4050   -4.9720 hc        1 MOL     -0.081324
    103 H44        -4.1640    1.2920   -3.8020 hc        1 MOL      0.097235
    104 H45        -5.5680    1.3920   -2.9300 hc        1 MOL      0.097235
    105 H46        -5.6770    1.3460   -4.7690 hc        1 MOL      0.097235
    106 H47        -6.8270    3.7290   -3.4340 hc        1 MOL      0.097235
    107 H48        -5.8480    5.1100   -4.1550 hc        1 MOL      0.097235
    108 H49        -6.5990    3.8190   -5.1780 hc        1 MOL      0.097235
    109 N10        -2.1660    2.6130   -1.7780 n         1 MOL     -0.373546
    110 C35        -0.8630    1.9050   -1.6680 c3        1 MOL      0.230273
    111 C36         0.1060    2.5640   -0.6580 c         1 MOL      0.490595
    112 O17        -0.2320    3.5320    0.0730 o         1 MOL     -0.550127
    113 C37        -1.2400    0.4620   -1.1630 c3        1 MOL      0.019856
    114 C38        -0.1500   -0.6220   -1.3750 c         1 MOL      0.590748
    115 N11        -0.2140   -1.7910   -0.7400 n         1 MOL     -0.845707
    116 O18         0.8220   -0.3100   -2.0900 o         1 MOL     -0.563551
    117 H50        -2.7580    2.6210   -0.9610 hn        1 MOL      0.209365
    118 H51        -0.3470    1.8450   -2.6260 h1        1 MOL      0.030533
    119 H52        -2.0670    0.0250   -1.7300 hc        1 MOL      0.006882
    120 H53        -1.4740    0.4270   -0.1010 hc        1 MOL      0.006882
    121 H54        -0.9410   -2.0120   -0.0740 hn        1 MOL      0.390163
    122 H55         0.6610   -2.2820   -0.6220 hn        1 MOL      0.390163
    123 N12         1.3610    2.1390   -0.5700 n         1 MOL     -0.468979
    124 C39         2.4160    2.4010    0.4190 c3        1 MOL      0.260981
    125 C40         3.8340    2.8390   -0.1360 c         1 MOL      0.587789
    126 O19         4.3450    2.2080   -1.0750 o         1 MOL     -0.576385
    127 C41         2.5500    1.1730    1.3280 c3        1 MOL     -0.419913
    128 C42         3.5000    1.3960    2.5340 ca        1 MOL      0.165400
    129 C43         2.8540    1.7440    3.7490 ca        1 MOL     -0.124908
    130 C44         4.8980    1.2790    2.5440 ca        1 MOL     -0.124908
    131 C45         3.6770    2.0080    4.8950 ca        1 MOL     -0.372793
    132 C46         5.6810    1.4740    3.6500 ca        1 MOL     -0.372793
    133 C47         5.0840    1.8500    4.8530 ca        1 MOL      0.470270
    134 O20         5.7970    1.9810    5.9840 oh        1 MOL     -0.525409
    135 H56         1.6620    1.5740   -1.3550 hn        1 MOL      0.249744
    136 H57         2.1150    3.2170    1.0760 h1        1 MOL      0.047550
    137 H58         2.9170    0.3080    0.7780 hc        1 MOL      0.151415
    138 H59         1.5690    0.9140    1.7390 hc        1 MOL      0.151415
    139 H60         1.7930    1.7890    3.8920 ha        1 MOL      0.143193
    140 H61         5.3290    0.8140    1.6750 ha        1 MOL      0.143193
    141 H62         3.2560    2.2000    5.8720 ha        1 MOL      0.144322
    142 H63         6.6710    1.0660    3.7520 ha        1 MOL      0.144322
    143 H64         5.2320    2.1380    6.7400 ho        1 MOL      0.353169
    144 N13         4.3580    3.9990    0.3790 n         1 MOL     -0.769901
    145 C48         5.6170    4.5520   -0.2170 c3        1 MOL      0.443586
    146 C49         6.7670    4.3780    0.7970 c         1 MOL      0.565172
    147 O21         6.9470    5.1750    1.6930 o         1 MOL     -0.563156
    148 C50         5.3780    6.0280   -0.6250 c3        1 MOL     -0.017980
    149 C51         6.3230    6.5430   -1.6810 c3        1 MOL     -0.211832
    150 C52         6.4440    8.0970   -1.6560 c         1 MOL      0.699342
    151 O22         6.9400    8.7030   -0.6820 o         1 MOL     -0.678690
    152 O23         6.1420    8.7320   -2.6970 o         1 MOL     -0.678690
    153 H65         3.8740    4.5600    1.0610 hn        1 MOL      0.326400
    154 H66         5.8690    4.0020   -1.1270 h1        1 MOL     -0.026039
    155 H67         5.3710    6.7550    0.1920 hc        1 MOL      0.018712
    156 H68         4.4120    6.0850   -1.1280 hc        1 MOL      0.018712
    157 H69         5.9950    6.1550   -2.6440 hc        1 MOL      0.027841
    158 H70         7.3030    6.0980   -1.4880 hc        1 MOL      0.027841
    159 N14         7.7940    3.4980    0.6040 n         1 MOL     -0.594323
    160 C53         7.8030    2.2550   -0.1740 c3        1 MOL      0.119601
    161 C54         8.0500    2.4150   -1.6820 c         1 MOL      0.408152
    162 O24         8.9590    3.1060   -2.1400 o         1 MOL     -0.534305
    163 C55         8.8770    1.2590    0.3760 c3        1 MOL     -0.227568
    164 C56         8.7600   -0.1200   -0.3630 c3        1 MOL     -0.123553
    165 C57         7.5130   -0.9440   -0.0390 c         1 MOL      0.436758
    166 O25         6.7620   -1.1720   -0.9370 o         1 MOL     -0.644213
    167 O26         7.2850   -1.2590    1.1500 o         1 MOL     -0.644213
    168 H71         8.4570    3.4770    1.3630 hn        1 MOL      0.325657
    169 H72         6.8100    1.8570    0.0070 h1        1 MOL      0.217918
    170 H73         8.6250    1.2890    1.4440 hc        1 MOL      0.072538
    171 H74         9.8960    1.6470    0.3440 hc        1 MOL      0.072538
    172 H75         9.6640   -0.7180   -0.2370 hc        1 MOL      0.051393
    173 H76         8.8020    0.1050   -1.4330 hc        1 MOL      0.051393
    174 N15         7.1860    1.7790   -2.5150 n         1 MOL     -0.219138
    175 C58         7.2140    1.7820   -4.0390 c3        1 MOL     -0.078286
    176 H77         7.4630    0.7840   -4.3990 h1        1 MOL      0.059845
    177 H78         6.2350    2.0720   -4.4210 h1        1 MOL      0.059845
    178 H79         7.9650    2.4910   -4.3880 h1        1 MOL      0.059845
    179 H80         6.4640    1.2310   -2.0750 hn        1 MOL      0.250526
    180 Ca1         6.1910   -3.5750    1.1040 Ca        1 MOL      1.729900
    181 O27         8.5860   -4.1210   -0.1080 oh        1 MOL     -0.828190
    182 H81         8.9560   -3.9440   -0.9730 ho        1 MOL      0.389223
    183 H82         9.1630   -4.7690    0.2820 ho        1 MOL      0.389223
    184 O28         7.9590   -4.3220    3.0700 oh        1 MOL     -0.828190
    185 H83         8.5910   -3.9310    3.6750 ho        1 MOL      0.389223
    186 H84         8.1300   -5.2570    3.1070 ho        1 MOL      0.389223
    187 O29         5.3770   -2.7000    3.4780 oh        1 MOL     -0.828190
    188 H85         5.4530   -3.3950    4.1290 ho        1 MOL      0.389223
    189 H86         5.9660   -2.0100    3.7890 ho        1 MOL      0.389223
    190 O30         3.9820   -1.9300    0.1960 oh        1 MOL     -0.828190
    191 H87         4.3780   -1.4310   -0.5230 ho        1 MOL      0.389223
    192 H88         3.2870   -2.4290   -0.2230 ho        1 MOL      0.389223
    193 O31         6.4740   -6.2680    1.4700 oh        1 MOL     -0.828190
    194 H89         6.8970   -6.8220    0.8070 ho        1 MOL      0.389223
    195 H90         6.1440   -6.8840    2.1100 ho        1 MOL      0.389223
@<TRIPOS>BOND
     1    1    2 1   
     2    1    4 1   
     3    1    5 1   
     4    1    6 1   
     5    2    3 2   
     6    2    7 1   
     7    7    8 1   
     8    7   15 1   
     9    8    9 1   
    10    8   11 1   
    11    8   16 1   
    12    9   10 2   
    13    9   19 1   
    14   11   12 1   
    15   11   17 1   
    16   11   18 1   
    17   12   13 1   
    18   12   14 1   
    19   19   20 1   
    20   19   27 1   
    21   20   21 1   
    22   20   23 1   
    23   20   28 1   
    24   21   22 2   
    25   21   38 1   
    26   23   24 1   
    27   23   25 1   
    28   23   29 1   
    29   24   26 1   
    30   24   30 1   
    31   24   31 1   
    32   25   32 1   
    33   25   33 1   
    34   25   34 1   
    35   26   35 1   
    36   26   36 1   
    37   26   37 1   
    38   38   39 1   
    39   38   46 1   
    40   39   40 1   
    41   39   42 1   
    42   39   47 1   
    43   40   41 2   
    44   40   50 1   
    45   42   43 1   
    46   42   48 1   
    47   42   49 1   
    48   43   44 1   
    49   43   45 1   
    50   50   51 1   
    51   50   54 1   
    52   51   52 1   
    53   51   55 1   
    54   51   56 1   
    55   52   53 2   
    56   52   57 1   
    57   57   58 1   
    58   57   65 1   
    59   58   59 1   
    60   58   61 1   
    61   58   66 1   
    62   59   60 2   
    63   59   69 1   
    64   61   62 1   
    65   61   67 1   
    66   61   68 1   
    67   62   63 1   
    68   62   64 1   
    69   69   70 1   
    70   69   73 1   
    71   70   71 1   
    72   70   74 1   
    73   70   75 1   
    74   71   72 2   
    75   71   76 1   
    76   76   77 1   
    77   76   85 1   
    78   77   78 1   
    79   77   80 1   
    80   77   86 1   
    81   78   79 2   
    82   78   93 1   
    83   80   81 1   
    84   80   87 1   
    85   80   88 1   
    86   81   82 1   
    87   81   89 1   
    88   81   90 1   
    89   82   83 1   
    90   82   84 2   
    91   83   91 1   
    92   83   92 1   
    93   93   94 1   
    94   93  100 1   
    95   94   95 1   
    96   94   97 1   
    97   94  101 1   
    98   95   96 2   
    99   95  109 1   
   100   97   98 1   
   101   97   99 1   
   102   97  102 1   
   103   98  103 1   
   104   98  104 1   
   105   98  105 1   
   106   99  106 1   
   107   99  107 1   
   108   99  108 1   
   109  109  110 1   
   110  109  117 1   
   111  110  111 1   
   112  110  113 1   
   113  110  118 1   
   114  111  112 2   
   115  111  123 1   
   116  113  114 1   
   117  113  119 1   
   118  113  120 1   
   119  114  115 1   
   120  114  116 2   
   121  115  121 1   
   122  115  122 1   
   123  123  124 1   
   124  123  135 1   
   125  124  125 1   
   126  124  127 1   
   127  124  136 1   
   128  125  126 2   
   129  125  144 1   
   130  127  128 1   
   131  127  137 1   
   132  127  138 1   
   133  128  129 ar  
   134  128  130 ar  
   135  129  131 ar  
   136  129  139 1   
   137  130  132 ar  
   138  130  140 1   
   139  131  133 ar  
   140  131  141 1   
   141  132  133 ar  
   142  132  142 1   
   143  133  134 1   
   144  134  143 1   
   145  144  145 1   
   146  144  153 1   
   147  145  146 1   
   148  145  148 1   
   149  145  154 1   
   150  146  147 2   
   151  146  159 1   
   152  148  149 1   
   153  148  155 1   
   154  148  156 1   
   155  149  150 1   
   156  149  157 1   
   157  149  158 1   
   158  150  151 1   
   159  150  152 1   
   160  159  160 1   
   161  159  168 1   
   162  160  161 1   
   163  160  163 1   
   164  160  169 1   
   165  161  162 2   
   166  161  174 1   
   167  163  164 1   
   168  163  170 1   
   169  163  171 1   
   170  164  165 1   
   171  164  172 1   
   172  164  173 1   
   173  165  166 1   
   174  165  167 1   
   175  174  175 1   
   176  174  179 1   
   177  175  176 1   
   178  175  177 1   
   179  175  178 1   
   180  181  182 1   
   181  181  183 1   
   182  184  185 1   
   183  184  186 1   
   184  187  188 1   
   185  187  189 1   
   186  190  191 1   
   187  190  192 1   
   188  193  194 1   
   189  193  195 1   
@<TRIPOS>SUBSTRUCTURE
     1 MOL         1 TEMP              0 ****  ****    0 ROOT
