@<TRIPOS>MOLECULE
MOL
  175   173     1     0     0
SMALL
resp


@<TRIPOS>ATOM
      1 C1         -5.9950    8.2210    1.2950 c3        1 MOL     -0.493065
      2 C2         -6.9260    7.3550    0.4650 c         1 MOL      0.672459
      3 O1         -7.0780    7.4910   -0.7880 o         1 MOL     -0.612536
      4 H1         -5.9710    7.8490    2.3190 hc        1 MOL      0.131567
      5 H2         -4.9910    8.1860    0.8720 hc        1 MOL      0.131567
      6 H3         -6.3560    9.2490    1.2910 hc        1 MOL      0.131567
      7 N1         -7.6200    6.3800    1.0700 n         1 MOL     -0.548918
      8 C3         -8.6390    5.4890    0.5170 c3        1 MOL      0.348475
      9 C4         -7.8910    4.2570   -0.1120 c         1 MOL      0.456457
     10 O2         -8.2760    3.1010    0.1880 o         1 MOL     -0.496539
     11 C5         -9.5880    5.1290    1.6980 c3        1 MOL     -0.338317
     12 C6        -10.9070    4.4630    1.2380 c         1 MOL      0.693123
     13 O3        -11.2860    4.4100    0.0180 o         1 MOL     -0.717500
     14 O4        -11.6480    3.9810    2.1410 o         1 MOL     -0.717500
     15 H4         -7.5820    6.3190    2.0770 hn        1 MOL      0.290775
     16 H5         -9.2520    6.0050   -0.2220 h1        1 MOL      0.006214
     17 H6         -9.7490    6.0160    2.3200 hc        1 MOL      0.055835
     18 H7         -9.1520    4.4640    2.4420 hc        1 MOL      0.055835
     19 N2         -6.8710    4.4730   -0.9620 n         1 MOL     -0.626648
     20 C7         -5.9350    3.4020   -1.4020 c3        1 MOL      0.321313
     21 C8         -5.1030    2.6630   -0.2580 c         1 MOL      0.525845
     22 O5         -4.6190    3.2770    0.7250 o         1 MOL     -0.531755
     23 C9         -4.9780    4.0280   -2.4390 c3        1 MOL     -0.297689
     24 H8         -6.6350    5.4340   -1.1860 hn        1 MOL      0.332946
     25 H9         -6.5200    2.6480   -1.9300 h1        1 MOL      0.059634
     26 H10        -4.3570    4.7700   -1.9360 hc        1 MOL      0.079208
     27 H11        -4.3330    3.2080   -2.7550 hc        1 MOL      0.079208
     28 H12        -5.4810    4.3670   -3.3430 hc        1 MOL      0.079208
     29 N3         -4.8640    1.3530   -0.4090 n         1 MOL     -0.473237
     30 C10        -5.4300    0.3230   -1.3400 c3        1 MOL     -0.034437
     31 C11        -5.7330   -1.0250   -0.6210 c         1 MOL      0.470930
     32 O6         -5.0160   -1.5980    0.1670 o         1 MOL     -0.467014
     33 C12        -4.5260   -0.0730   -2.4890 c3        1 MOL     -0.207375
     34 C13        -3.1260   -0.4700   -2.1040 c         1 MOL      0.842930
     35 O7         -2.4300    0.2210   -1.4240 o         1 MOL     -0.744206
     36 O8         -2.6200   -1.5320   -2.4470 o         1 MOL     -0.744206
     37 H13        -4.0380    1.0500    0.0860 hn        1 MOL      0.279984
     38 H14        -6.3510    0.7890   -1.7000 h1        1 MOL      0.060668
     39 H15        -4.4070    0.7970   -3.1280 hc        1 MOL      0.039352
     40 H16        -5.0400   -0.8510   -3.0650 hc        1 MOL      0.039352
     41 N4         -6.8590   -1.6100   -0.9470 n         1 MOL     -0.317161
     42 C14        -7.1180   -2.9630   -0.5710 c3        1 MOL      0.026763
     43 C15        -6.9690   -4.0640   -1.6970 c         1 MOL      0.447018
     44 O9         -7.9630   -4.5880   -2.2450 o         1 MOL     -0.547079
     45 H17        -7.6200   -1.1120   -1.4000 hn        1 MOL      0.298090
     46 H18        -8.1830   -2.9460   -0.3120 h1        1 MOL      0.056054
     47 H19        -6.5840   -3.2200    0.3450 h1        1 MOL      0.056054
     48 N5         -5.7810   -4.5380   -2.1280 n         1 MOL     -0.383362
     49 C16        -4.4990   -4.2780   -1.4720 c3        1 MOL     -0.080290
     50 C17        -4.3500   -4.9380   -0.0660 c         1 MOL      0.539167
     51 O10        -4.4990   -6.1670    0.0390 o         1 MOL     -0.569572
     52 C18        -3.4180   -4.7260   -2.4420 c3        1 MOL      0.033224
     53 C19        -1.9880   -4.4140   -1.9090 c         1 MOL      0.495647
     54 N6         -0.9240   -4.8950   -2.5240 n         1 MOL     -0.672928
     55 O11        -1.7590   -3.7480   -0.8960 o         1 MOL     -0.574646
     56 H20        -5.8360   -5.2180   -2.8780 hn        1 MOL      0.299990
     57 H21        -4.4080   -3.2060   -1.3470 h1        1 MOL      0.082134
     58 H22        -3.5600   -4.1750   -3.3740 hc        1 MOL      0.024273
     59 H23        -3.5420   -5.7490   -2.7960 hc        1 MOL      0.024273
     60 H24        -0.9620   -5.4350   -3.3770 hn        1 MOL      0.336416
     61 H25        -0.0440   -4.4970   -2.2290 hn        1 MOL      0.336416
     62 N7         -4.0840   -4.2010    1.0070 n         1 MOL     -0.064735
     63 C20        -3.8840   -4.7880    2.3120 c3        1 MOL     -0.460668
     64 C21        -2.4890   -5.3710    2.5830 c         1 MOL      0.691488
     65 O12        -2.3390   -6.0980    3.5380 o         1 MOL     -0.588107
     66 H26        -3.9540   -3.2130    0.8600 hn        1 MOL      0.177056
     67 H27        -4.6050   -5.5720    2.5220 h1        1 MOL      0.155064
     68 H28        -3.9130   -3.9520    3.0190 h1        1 MOL      0.155064
     69 N8         -1.4490   -4.9930    1.8220 n         1 MOL     -0.340412
     70 C22         0.0170   -5.1690    2.1140 c3        1 MOL     -0.095448
     71 C23         0.8620   -3.9140    1.8300 c         1 MOL      0.486021
     72 O13         0.4670   -3.1260    1.0220 o         1 MOL     -0.589008
     73 C24         0.5670   -6.3990    1.2680 c3        1 MOL      0.249354
     74 C25        -0.0700   -7.7340    1.6240 c3        1 MOL     -0.197153
     75 O14         0.4480   -6.2410   -0.1030 oh        1 MOL     -0.602815
     76 H29        -1.6870   -4.5730    0.9380 hn        1 MOL      0.278563
     77 H30         0.1830   -5.3650    3.1680 h1        1 MOL      0.071697
     78 H31         1.6270   -6.5300    1.4780 h1        1 MOL      0.002701
     79 H32         0.9330   -5.4550   -0.3870 ho        1 MOL      0.451000
     80 H33         0.3230   -8.1870    2.5370 hc        1 MOL      0.057051
     81 H34        -1.1380   -7.7370    1.8140 hc        1 MOL      0.057051
     82 H35         0.1970   -8.5220    0.9130 hc        1 MOL      0.057051
     83 N9          2.0760   -3.7660    2.3840 n         1 MOL     -0.416543
     84 C26         2.9700   -2.6090    2.3920 c3        1 MOL      0.264712
     85 C27         4.0910   -2.8710    1.3720 c         1 MOL      0.336674
     86 O15         4.9620   -3.6880    1.5690 o         1 MOL     -0.566630
     87 C28         3.5070   -2.4450    3.8300 c3        1 MOL      0.246307
     88 C29         4.6730   -1.4650    3.9880 c3        1 MOL     -0.109308
     89 C30         2.3920   -2.0570    4.8130 c3        1 MOL     -0.494130
     90 C31         4.3560   -0.0650    3.4290 c3        1 MOL     -0.070594
     91 H36         2.4270   -4.5490    2.9190 hn        1 MOL      0.244379
     92 H37         2.3700   -1.7400    2.1500 h1        1 MOL      0.091423
     93 H38         3.9130   -3.4290    4.0770 hc        1 MOL     -0.050001
     94 H39         5.5450   -1.8440    3.4430 hc        1 MOL      0.020499
     95 H40         4.9000   -1.3580    5.0570 hc        1 MOL      0.020499
     96 H41         1.7940   -2.9550    4.9710 hc        1 MOL      0.114895
     97 H42         2.7480   -1.7260    5.7970 hc        1 MOL      0.114895
     98 H43         1.8190   -1.2620    4.3410 hc        1 MOL      0.114895
     99 H44         3.6670    0.5010    4.0510 hc        1 MOL      0.017069
    100 H45         5.2720    0.5260    3.3360 hc        1 MOL      0.017069
    101 H46         3.8230   -0.0780    2.4810 hc        1 MOL      0.017069
    102 N10         3.9770   -2.1880    0.2290 n         1 MOL     -0.123691
    103 C32         4.6910   -2.5400   -1.0460 c3        1 MOL      0.061288
    104 C33         5.8640   -1.6570   -1.4060 c         1 MOL      0.398175
    105 O16         6.5470   -1.9580   -2.4070 o         1 MOL     -0.531970
    106 C34         3.6810   -2.6320   -2.1830 c3        1 MOL     -0.300081
    107 C35         2.3830   -3.3140   -1.8230 c         1 MOL      0.766083
    108 O17         2.4080   -4.5360   -1.5330 o         1 MOL     -0.686425
    109 O18         1.3240   -2.6400   -2.0260 o         1 MOL     -0.686425
    110 H47         3.2320   -1.5110    0.1380 hn        1 MOL      0.084775
    111 H48         5.0430   -3.5670   -1.0370 h1        1 MOL      0.103990
    112 H49         4.1570   -3.2190   -2.9760 hc        1 MOL      0.078219
    113 H50         3.5460   -1.5840   -2.4260 hc        1 MOL      0.078219
    114 N11         6.0950   -0.5960   -0.6100 n         1 MOL     -0.271333
    115 C36         7.1200    0.4280   -1.0270 c3        1 MOL      0.175867
    116 C37         6.8810    1.8410   -0.4410 c         1 MOL      0.391298
    117 O19         6.3610    1.9300    0.6790 o         1 MOL     -0.528740
    118 C38         8.4700   -0.1910   -0.5060 c3        1 MOL     -0.436157
    119 C39         9.5890    0.8240   -0.5350 ca        1 MOL      0.219562
    120 C40        10.0550    1.5530    0.6460 ca        1 MOL     -0.195368
    121 C41        10.3360    0.9790   -1.7140 ca        1 MOL     -0.195368
    122 C42        11.0270    2.5600    0.5950 ca        1 MOL     -0.120541
    123 C43        11.2220    2.1000   -1.8560 ca        1 MOL     -0.120541
    124 C44        11.5860    2.8300   -0.6770 ca        1 MOL     -0.119670
    125 H51         5.6560   -0.5730    0.3000 hn        1 MOL      0.204442
    126 H52         7.0820    0.5180   -2.1140 h1        1 MOL      0.037933
    127 H53         8.6840   -1.0660   -1.1220 hc        1 MOL      0.158796
    128 H54         8.2180   -0.4590    0.5220 hc        1 MOL      0.158796
    129 H55         9.5580    1.4190    1.5960 ha        1 MOL      0.130115
    130 H56        10.0470    0.4650   -2.6160 ha        1 MOL      0.130115
    131 H57        11.2070    3.1030    1.5070 ha        1 MOL      0.123192
    132 H58        11.6150    2.4240   -2.8050 ha        1 MOL      0.123192
    133 H59        12.3250    3.6100   -0.7760 ha        1 MOL      0.092295
    134 N12         7.1050    2.9670   -1.1430 n         1 MOL     -0.040667
    135 C45         6.9980    4.2790   -0.4370 c3        1 MOL     -0.090941
    136 C46         5.5790    4.7530    0.0090 c         1 MOL      0.590571
    137 O20         5.4010    5.8830    0.3200 o         1 MOL     -0.561101
    138 C47         7.7480    5.2030   -1.4800 c3        1 MOL     -0.121037
    139 C48         7.5440    4.4940   -2.8690 c3        1 MOL      0.037925
    140 C49         7.3940    3.0540   -2.5320 c3        1 MOL     -0.079795
    141 H60         7.5830    4.2330    0.4820 h1        1 MOL      0.088464
    142 H61         7.3170    6.1990   -1.5130 hc        1 MOL      0.056933
    143 H62         8.7950    5.2790   -1.1600 hc        1 MOL      0.056933
    144 H63         6.6980    4.9340   -3.3780 hc        1 MOL      0.020178
    145 H64         8.4250    4.6730   -3.4940 hc        1 MOL      0.020178
    146 H65         6.5580    2.6630   -3.1190 h1        1 MOL      0.048435
    147 H66         8.2910    2.4970   -2.8200 h1        1 MOL      0.048435
    148 N13         4.5040    3.9320    0.0060 n         1 MOL     -0.324401
    149 C50         3.1260    4.4540    0.1750 c3        1 MOL      0.028160
    150 C51         2.7550    4.9300    1.6120 c         1 MOL      0.379102
    151 O21         1.7240    5.5270    1.9320 o         1 MOL     -0.509207
    152 C52         2.0550    3.3650   -0.1420 c3        1 MOL     -0.305141
    153 C53         2.5430    2.0010    0.2630 c3        1 MOL      0.295606
    154 C54         1.5050    0.8160    0.0730 c         1 MOL      0.570713
    155 O22         0.2570    1.0290    0.0330 o         1 MOL     -0.719866
    156 O23         1.8750   -0.3510    0.0190 o         1 MOL     -0.719866
    157 H67         4.6010    2.9280   -0.1330 hn        1 MOL      0.155046
    158 H68         3.0550    5.3110   -0.4980 h1        1 MOL      0.098915
    159 H69         1.8730    3.4290   -1.2210 hc        1 MOL      0.106133
    160 H70         1.1650    3.6140    0.4320 hc        1 MOL      0.106133
    161 H71         2.7860    2.0710    1.3230 hc        1 MOL     -0.078276
    162 H72         3.4790    1.7670   -0.2270 hc        1 MOL     -0.078276
    163 N14         3.5970    4.5130    2.5720 n         1 MOL     -0.115980
    164 C55         3.5320    5.0060    3.9380 c3        1 MOL     -0.010412
    165 H73         4.3230    5.7390    4.0960 h1        1 MOL      0.034703
    166 H74         2.5630    5.4750    4.1100 h1        1 MOL      0.034703
    167 H75         3.6630    4.1750    4.6320 h1        1 MOL      0.034703
    168 H76         4.4660    4.0880    2.2840 hn        1 MOL      0.169609
    169 Ca1        -0.4620   -1.3190   -0.7960 Ca        1 MOL      1.758719
    170 O24        -0.0870   -0.1180   -3.3460 oh        1 MOL     -0.872858
    171 H77        -0.6350    0.6320   -3.5780 ho        1 MOL      0.413089
    172 H78         0.7320    0.0190   -3.8260 ho        1 MOL      0.413089
    173 O25        -2.6220   -1.4760    1.0140 oh        1 MOL     -0.872858
    174 H79        -2.5230   -0.6190    1.4380 ho        1 MOL      0.413089
    175 H80        -3.5130   -1.4770    0.6720 ho        1 MOL      0.413089
@<TRIPOS>BOND
     1    1    2 1   
     2    1    4 1   
     3    1    5 1   
     4    1    6 1   
     5    2    3 2   
     6    2    7 1   
     7    7    8 1   
     8    7   15 1   
     9    8    9 1   
    10    8   11 1   
    11    8   16 1   
    12    9   10 2   
    13    9   19 1   
    14   11   12 1   
    15   11   17 1   
    16   11   18 1   
    17   12   13 1   
    18   12   14 1   
    19   19   20 1   
    20   19   24 1   
    21   20   21 1   
    22   20   23 1   
    23   20   25 1   
    24   21   22 2   
    25   21   29 1   
    26   23   26 1   
    27   23   27 1   
    28   23   28 1   
    29   29   30 1   
    30   29   37 1   
    31   30   31 1   
    32   30   33 1   
    33   30   38 1   
    34   31   32 2   
    35   31   41 1   
    36   33   34 1   
    37   33   39 1   
    38   33   40 1   
    39   34   35 1   
    40   34   36 1   
    41   41   42 1   
    42   41   45 1   
    43   42   43 1   
    44   42   46 1   
    45   42   47 1   
    46   43   44 2   
    47   43   48 1   
    48   48   49 1   
    49   48   56 1   
    50   49   50 1   
    51   49   52 1   
    52   49   57 1   
    53   50   51 2   
    54   50   62 1   
    55   52   53 1   
    56   52   58 1   
    57   52   59 1   
    58   53   54 1   
    59   53   55 2   
    60   54   60 1   
    61   54   61 1   
    62   62   63 1   
    63   62   66 1   
    64   63   64 1   
    65   63   67 1   
    66   63   68 1   
    67   64   65 2   
    68   64   69 1   
    69   69   70 1   
    70   69   76 1   
    71   70   71 1   
    72   70   73 1   
    73   70   77 1   
    74   71   72 2   
    75   71   83 1   
    76   73   74 1   
    77   73   75 1   
    78   73   78 1   
    79   74   80 1   
    80   74   81 1   
    81   74   82 1   
    82   75   79 1   
    83   83   84 1   
    84   83   91 1   
    85   84   85 1   
    86   84   87 1   
    87   84   92 1   
    88   85   86 2   
    89   85  102 1   
    90   87   88 1   
    91   87   89 1   
    92   87   93 1   
    93   88   90 1   
    94   88   94 1   
    95   88   95 1   
    96   89   96 1   
    97   89   97 1   
    98   89   98 1   
    99   90   99 1   
   100   90  100 1   
   101   90  101 1   
   102  102  103 1   
   103  102  110 1   
   104  103  104 1   
   105  103  106 1   
   106  103  111 1   
   107  104  105 2   
   108  104  114 1   
   109  106  107 1   
   110  106  112 1   
   111  106  113 1   
   112  107  108 1   
   113  107  109 1   
   114  114  115 1   
   115  114  125 1   
   116  115  116 1   
   117  115  118 1   
   118  115  126 1   
   119  116  117 2   
   120  116  134 1   
   121  118  119 1   
   122  118  127 1   
   123  118  128 1   
   124  119  120 ar  
   125  119  121 ar  
   126  120  122 ar  
   127  120  129 1   
   128  121  123 ar  
   129  121  130 1   
   130  122  124 ar  
   131  122  131 1   
   132  123  124 ar  
   133  123  132 1   
   134  124  133 1   
   135  134  135 1   
   136  134  140 1   
   137  135  136 1   
   138  135  138 1   
   139  135  141 1   
   140  136  137 2   
   141  136  148 1   
   142  138  139 1   
   143  138  142 1   
   144  138  143 1   
   145  139  140 1   
   146  139  144 1   
   147  139  145 1   
   148  140  146 1   
   149  140  147 1   
   150  148  149 1   
   151  148  157 1   
   152  149  150 1   
   153  149  152 1   
   154  149  158 1   
   155  150  151 2   
   156  150  163 1   
   157  152  153 1   
   158  152  159 1   
   159  152  160 1   
   160  153  154 1   
   161  153  161 1   
   162  153  162 1   
   163  154  155 1   
   164  154  156 1   
   165  163  164 1   
   166  163  168 1   
   167  164  165 1   
   168  164  166 1   
   169  164  167 1   
   170  170  171 1   
   171  170  172 1   
   172  173  174 1   
   173  173  175 1   
@<TRIPOS>SUBSTRUCTURE
     1 MOL         1 TEMP              0 ****  ****    0 ROOT
