@<TRIPOS>MOLECULE
MOL
  181   177     1     0     0
SMALL
resp


@<TRIPOS>ATOM
      1 C1          0.0460    6.7710   -2.8630 c3        1 MOL     -0.485166
      2 C2          1.2380    6.6930   -1.8810 c         1 MOL      0.748687
      3 O1          1.2800    7.2730   -0.8050 o         1 MOL     -0.597145
      4 H1          0.3180    7.3940   -3.7160 hc        1 MOL      0.129331
      5 H2         -0.2060    5.7700   -3.2110 hc        1 MOL      0.129331
      6 H3         -0.8150    7.2070   -2.3560 hc        1 MOL      0.129331
      7 N1          2.3530    5.9440   -2.1990 n         1 MOL     -0.724188
      8 C3          3.6230    5.9850   -1.4610 c3        1 MOL      0.403164
      9 C4          3.6800    4.9510   -0.2920 c         1 MOL      0.528987
     10 O2          3.4570    3.7280   -0.4660 o         1 MOL     -0.573105
     11 C5          4.7600    5.7310   -2.4010 c3        1 MOL     -0.407452
     12 C6          6.1480    5.9390   -1.8160 c         1 MOL      0.751918
     13 O3          7.1140    5.3950   -2.4530 o         1 MOL     -0.737076
     14 O4          6.4110    6.5080   -0.7310 o         1 MOL     -0.737076
     15 H4          2.3090    5.2930   -2.9670 hn        1 MOL      0.303801
     16 H5          3.6950    7.0000   -1.0650 h1        1 MOL      0.025442
     17 H6          4.5750    6.4230   -3.2260 hc        1 MOL      0.077250
     18 H7          4.7670    4.6990   -2.7630 hc        1 MOL      0.077250
     19 N2          4.1400    5.4280    0.8760 n         1 MOL     -0.548212
     20 C7          4.3430    4.5610    2.0200 c3        1 MOL      0.532533
     21 C8          3.0060    4.0160    2.5780 c         1 MOL      0.417146
     22 O5          1.9750    4.6890    2.5320 o         1 MOL     -0.542140
     23 C9          5.2050    5.3580    3.0650 c3        1 MOL     -0.504357
     24 H8          4.3540    6.4030    0.9940 hn        1 MOL      0.279599
     25 H9          4.9980    3.7230    1.7430 h1        1 MOL      0.028579
     26 H10         4.5000    6.0630    3.5170 hc        1 MOL      0.118625
     27 H11         5.4520    4.6760    3.8800 hc        1 MOL      0.118625
     28 H12         6.0510    5.8640    2.6070 hc        1 MOL      0.118625
     29 N3          2.9710    2.7970    3.1250 n         1 MOL     -0.478801
     30 C10         4.0720    1.8340    3.3890 c3        1 MOL      0.154044
     31 C11         4.3940    0.8420    2.2000 c         1 MOL      0.218308
     32 O6          3.7390    0.7710    1.1330 o         1 MOL     -0.315003
     33 C12         3.7610    1.0760    4.6800 c3        1 MOL     -0.206059
     34 C13         2.4870    0.2460    4.6210 c         1 MOL      0.649906
     35 O7          1.7810    0.1600    3.5650 o         1 MOL     -0.660398
     36 O8          2.2870   -0.5840    5.5250 o         1 MOL     -0.660398
     37 H13         2.0690    2.5570    3.4960 hn        1 MOL      0.334330
     38 H14         4.9930    2.3560    3.6170 h1        1 MOL      0.003277
     39 H15         3.6970    1.7540    5.5270 hc        1 MOL      0.042051
     40 H16         4.5390    0.3570    4.9330 hc        1 MOL      0.042051
     41 N4          5.5520    0.1920    2.2690 n         1 MOL     -0.327019
     42 C14         6.1620   -0.7530    1.2860 c3        1 MOL     -0.056665
     43 C15         6.6760   -0.0120   -0.0380 c         1 MOL      0.585233
     44 O9          7.0410    1.1380    0.0400 o         1 MOL     -0.463370
     45 H17         6.0120    0.2120    3.1700 hn        1 MOL      0.266611
     46 H18         5.4110   -1.5380    1.2120 h1        1 MOL      0.068667
     47 H19         7.0240   -1.1950    1.7880 h1        1 MOL      0.068667
     48 N5          6.8920   -0.7720   -1.1720 n         1 MOL     -0.556806
     49 C16         6.8580   -2.2820   -1.2040 c3        1 MOL      0.131969
     50 C17         6.0490   -2.8830   -2.3740 c         1 MOL      0.547004
     51 O10         6.1000   -2.2070   -3.4120 o         1 MOL     -0.503983
     52 C18         8.3020   -2.6820   -1.2390 c3        1 MOL     -0.348341
     53 C19         8.4970   -4.1630   -1.2820 c         1 MOL      0.686451
     54 N6          8.1680   -5.0160   -0.3280 n         1 MOL     -0.774950
     55 O11         9.0060   -4.6460   -2.2960 o         1 MOL     -0.564271
     56 H20         7.2290   -0.2510   -1.9660 hn        1 MOL      0.357647
     57 H21         6.4620   -2.7290   -0.2900 h1        1 MOL     -0.015369
     58 H22         8.7460   -2.2230   -0.3540 hc        1 MOL      0.123520
     59 H23         8.6940   -2.1830   -2.1310 hc        1 MOL      0.123520
     60 H24         7.6580   -4.7560    0.5050 hn        1 MOL      0.354026
     61 H25         8.2380   -5.9870   -0.5710 hn        1 MOL      0.354026
     62 N7          5.3220   -3.9760   -2.1270 n         1 MOL     -0.391836
     63 C20         4.3680   -4.4740   -3.0760 c3        1 MOL     -0.092496
     64 C21         3.0190   -4.8110   -2.5000 c         1 MOL      0.430517
     65 O12         2.1750   -5.2910   -3.2770 o         1 MOL     -0.559292
     66 H26         5.3460   -4.4600   -1.2360 hn        1 MOL      0.236105
     67 H27         4.8180   -5.3640   -3.4970 h1        1 MOL      0.114845
     68 H28         4.2140   -3.8160   -3.9270 h1        1 MOL      0.114845
     69 N8          2.8000   -4.6710   -1.2340 n         1 MOL     -0.111792
     70 C22         1.5500   -5.0860   -0.5520 c3        1 MOL     -0.147437
     71 C23         0.4440   -4.0140   -0.5520 c         1 MOL      0.475206
     72 O13         0.8040   -2.8630   -0.3170 o         1 MOL     -0.493214
     73 C24         1.6790   -5.5800    0.8780 c3        1 MOL      0.180366
     74 C25         2.0950   -6.9940    0.9840 c3        1 MOL     -0.182753
     75 O14         2.6820   -4.8120    1.6220 oh        1 MOL     -0.637147
     76 H29         3.4610   -4.1010   -0.7330 hn        1 MOL      0.217589
     77 H30         1.0760   -5.9660   -0.9870 h1        1 MOL      0.091445
     78 H31         0.7250   -5.3800    1.3480 h1        1 MOL      0.115348
     79 H32         2.5580   -5.0540    2.5530 ho        1 MOL      0.435860
     80 H33         2.6390   -7.1800    1.9150 hc        1 MOL      0.050440
     81 H34         1.2780   -7.7200    0.9760 hc        1 MOL      0.050440
     82 H35         2.8590   -7.2030    0.2360 hc        1 MOL      0.050440
     83 N9         -0.7620   -4.3970   -0.8080 n         1 MOL     -0.249825
     84 C26        -1.9770   -3.6540   -0.7790 c3        1 MOL     -0.288988
     85 C27        -2.5190   -3.6430    0.6410 c         1 MOL      0.490733
     86 O15        -2.8170   -4.6510    1.1920 o         1 MOL     -0.542895
     87 C28        -3.0110   -4.2920   -1.7230 c3        1 MOL      0.330855
     88 C29        -4.1800   -3.2580   -1.9300 c3        1 MOL      0.132627
     89 C30        -2.5250   -4.7950   -3.0690 c3        1 MOL     -0.230331
     90 C31        -5.2320   -3.8820   -2.8540 c3        1 MOL     -0.306280
     91 H36        -0.7590   -5.3610   -1.1130 hn        1 MOL      0.252460
     92 H37        -1.7910   -2.6100   -1.0380 h1        1 MOL      0.153057
     93 H38        -3.3850   -5.1490   -1.1600 hc        1 MOL     -0.026931
     94 H39        -3.8530   -2.2700   -2.2520 hc        1 MOL     -0.033962
     95 H40        -4.6570   -3.0340   -0.9720 hc        1 MOL     -0.033962
     96 H41        -2.5300   -3.9990   -3.8190 hc        1 MOL      0.043184
     97 H42        -1.5640   -5.3030   -2.9680 hc        1 MOL      0.043184
     98 H43        -3.2210   -5.5820   -3.3430 hc        1 MOL      0.043184
     99 H44        -4.8620   -4.1530   -3.8460 hc        1 MOL      0.058383
    100 H45        -5.4800   -4.8390   -2.3960 hc        1 MOL      0.058383
    101 H46        -6.0740   -3.1940   -2.9230 hc        1 MOL      0.058383
    102 N10        -2.8510   -2.4310    1.1050 n         1 MOL     -0.223753
    103 C32        -3.4820   -2.2510    2.4580 c3        1 MOL     -0.034491
    104 C33        -4.8220   -1.5060    2.3910 c         1 MOL      0.442006
    105 O16        -5.4220   -1.2920    3.4400 o         1 MOL     -0.540820
    106 C34        -2.5420   -1.7280    3.5260 c3        1 MOL     -0.151727
    107 C35        -1.1740   -2.3980    3.3190 c         1 MOL      0.742918
    108 O17        -0.3680   -1.7670    2.5980 o         1 MOL     -0.714278
    109 O18        -0.7830   -3.4450    3.8740 o         1 MOL     -0.714278
    110 H47        -2.5520   -1.5860    0.6450 hn        1 MOL      0.175294
    111 H48        -3.6720   -3.2710    2.7860 h1        1 MOL      0.106310
    112 H49        -2.9140   -1.8710    4.5460 hc        1 MOL      0.054921
    113 H50        -2.3850   -0.6470    3.4980 hc        1 MOL      0.054921
    114 N11        -5.2520   -1.0210    1.2360 n         1 MOL     -0.472711
    115 C36        -6.4850   -0.2060    1.1150 c3        1 MOL      0.578011
    116 C37        -6.1490    1.0380    0.3280 c         1 MOL      0.174708
    117 O19        -6.6070    1.1900   -0.8300 o         1 MOL     -0.503025
    118 C38        -7.6650   -1.0680    0.6290 c3        1 MOL     -0.376848
    119 C39        -9.0520   -0.4830    0.8900 ca        1 MOL      0.118926
    120 C40        -9.5850   -0.1640    2.2230 ca        1 MOL     -0.142832
    121 C41        -9.9710   -0.3740   -0.1550 ca        1 MOL     -0.142832
    122 C42       -10.8930    0.2840    2.4190 ca        1 MOL     -0.142931
    123 C43       -11.3180    0.0330    0.0050 ca        1 MOL     -0.142931
    124 C44       -11.7090    0.4120    1.2760 ca        1 MOL     -0.093777
    125 H51        -4.6810   -1.0600    0.4030 hn        1 MOL      0.259031
    126 H52        -6.8280    0.1510    2.0880 h1        1 MOL     -0.036924
    127 H53        -7.6320   -2.0630    1.0610 hc        1 MOL      0.116568
    128 H54        -7.5580   -1.2210   -0.4460 hc        1 MOL      0.116568
    129 H55        -8.9990   -0.3810    3.1060 ha        1 MOL      0.114322
    130 H56        -9.7380   -0.5730   -1.1930 ha        1 MOL      0.114322
    131 H57       -11.2730    0.5360    3.3990 ha        1 MOL      0.116128
    132 H58       -12.0670   -0.0690   -0.7570 ha        1 MOL      0.116128
    133 H59       -12.7150    0.7950    1.3340 ha        1 MOL      0.079144
    134 N12        -5.2480    1.9500    0.7590 n         1 MOL     -0.031185
    135 C45        -4.9390    3.1950    0.0370 c3        1 MOL     -0.009140
    136 C46        -4.5980    3.2700   -1.4370 c         1 MOL      0.327668
    137 O20        -4.7090    4.3270   -2.0940 o         1 MOL     -0.513264
    138 C47        -3.8570    3.9100    0.8990 c3        1 MOL     -0.088754
    139 C48        -4.2280    3.3360    2.2560 c3        1 MOL     -0.018329
    140 C49        -4.4770    1.8520    2.0210 c3        1 MOL     -0.251569
    141 H60        -5.8620    3.7920    0.0600 h1        1 MOL      0.073616
    142 H61        -2.8840    3.5650    0.5520 hc        1 MOL      0.062466
    143 H62        -3.9230    4.9950    0.8070 hc        1 MOL      0.062466
    144 H63        -3.5070    3.5050    3.0520 hc        1 MOL      0.040919
    145 H64        -5.1090    3.8430    2.6510 hc        1 MOL      0.040919
    146 H65        -3.5980    1.2270    1.8600 h1        1 MOL      0.153312
    147 H66        -5.0910    1.4590    2.8290 h1        1 MOL      0.153312
    148 N13        -4.0950    2.1240   -1.9720 n         1 MOL     -0.011256
    149 C50        -3.7880    1.8460   -3.3660 c3        1 MOL     -0.512860
    150 C51        -5.0210    1.7350   -4.2030 c         1 MOL      0.659126
    151 O21        -4.9760    2.1520   -5.3730 o         1 MOL     -0.573873
    152 C52        -2.9030    0.5510   -3.5470 c3        1 MOL      0.152853
    153 C53        -1.6720    0.4790   -2.6090 c3        1 MOL     -0.137816
    154 C54        -1.9170    0.0850   -1.1860 c         1 MOL      0.597672
    155 O22        -0.9010    0.0400   -0.4520 o         1 MOL     -0.695588
    156 O23        -3.0240   -0.0620   -0.6690 o         1 MOL     -0.695588
    157 H67        -4.2530    1.3480   -1.3460 hn        1 MOL      0.248946
    158 H68        -3.0730    2.6360   -3.5770 h1        1 MOL      0.188423
    159 H69        -2.4540    0.5590   -4.5460 hc        1 MOL      0.002970
    160 H70        -3.5150   -0.3400   -3.4630 hc        1 MOL      0.002970
    161 H71        -1.2330    1.4860   -2.5800 hc        1 MOL      0.042173
    162 H72        -0.9830   -0.2380   -3.0520 hc        1 MOL      0.042173
    163 N14        -5.9810    1.0130   -3.6010 n         1 MOL     -0.251589
    164 C55        -7.2740    0.8970   -4.2220 c3        1 MOL     -0.206923
    165 H73        -7.2000    1.1870   -5.2700 h1        1 MOL      0.083106
    166 H74        -7.6180   -0.1350   -4.1550 h1        1 MOL      0.083106
    167 H75        -7.9820    1.5500   -3.7120 h1        1 MOL      0.083106
    168 H76        -5.8930    0.7720   -2.6200 hn        1 MOL      0.239582
    169 Ca1         1.1980   -0.3700    1.1180 Ca        1 MOL      1.695959
    170 O24         1.2530    2.0540   -0.2290 oh        1 MOL     -0.900962
    171 H77         0.5760    2.4000   -0.8180 ho        1 MOL      0.422219
    172 H78         1.9600    2.6990   -0.2650 ho        1 MOL      0.422219
    173 O25         2.7720   -0.6820   -1.0980 oh        1 MOL     -0.900962
    174 H79         2.4080   -1.1350   -1.8580 ho        1 MOL      0.422219
    175 H80         3.4470   -0.1120   -1.4660 ho        1 MOL      0.422219
    176 O26         3.0620   -2.0890    1.8970 oh        1 MOL     -0.900962
    177 H81         2.8100   -2.9940    1.7000 ho        1 MOL      0.422219
    178 H82         3.6250   -2.1680    2.6720 ho        1 MOL      0.422219
    179 O27        -0.8450    1.5660    1.7510 oh        1 MOL     -0.900962
    180 H83        -0.8380    2.5030    1.5670 ho        1 MOL      0.422219
    181 H84        -1.2670    1.1810    0.9840 ho        1 MOL      0.422219
@<TRIPOS>BOND
     1    1    2 1   
     2    1    4 1   
     3    1    5 1   
     4    1    6 1   
     5    2    3 2   
     6    2    7 1   
     7    7    8 1   
     8    7   15 1   
     9    8    9 1   
    10    8   11 1   
    11    8   16 1   
    12    9   10 2   
    13    9   19 1   
    14   11   12 1   
    15   11   17 1   
    16   11   18 1   
    17   12   13 1   
    18   12   14 1   
    19   19   20 1   
    20   19   24 1   
    21   20   21 1   
    22   20   23 1   
    23   20   25 1   
    24   21   22 2   
    25   21   29 1   
    26   23   26 1   
    27   23   27 1   
    28   23   28 1   
    29   29   30 1   
    30   29   37 1   
    31   30   31 1   
    32   30   33 1   
    33   30   38 1   
    34   31   32 2   
    35   31   41 1   
    36   33   34 1   
    37   33   39 1   
    38   33   40 1   
    39   34   35 1   
    40   34   36 1   
    41   41   42 1   
    42   41   45 1   
    43   42   43 1   
    44   42   46 1   
    45   42   47 1   
    46   43   44 2   
    47   43   48 1   
    48   48   49 1   
    49   48   56 1   
    50   49   50 1   
    51   49   52 1   
    52   49   57 1   
    53   50   51 2   
    54   50   62 1   
    55   52   53 1   
    56   52   58 1   
    57   52   59 1   
    58   53   54 1   
    59   53   55 2   
    60   54   60 1   
    61   54   61 1   
    62   62   63 1   
    63   62   66 1   
    64   63   64 1   
    65   63   67 1   
    66   63   68 1   
    67   64   65 2   
    68   64   69 1   
    69   69   70 1   
    70   69   76 1   
    71   70   71 1   
    72   70   73 1   
    73   70   77 1   
    74   71   72 2   
    75   71   83 1   
    76   73   74 1   
    77   73   75 1   
    78   73   78 1   
    79   74   80 1   
    80   74   81 1   
    81   74   82 1   
    82   75   79 1   
    83   83   84 1   
    84   83   91 1   
    85   84   85 1   
    86   84   87 1   
    87   84   92 1   
    88   85   86 2   
    89   85  102 1   
    90   87   88 1   
    91   87   89 1   
    92   87   93 1   
    93   88   90 1   
    94   88   94 1   
    95   88   95 1   
    96   89   96 1   
    97   89   97 1   
    98   89   98 1   
    99   90   99 1   
   100   90  100 1   
   101   90  101 1   
   102  102  103 1   
   103  102  110 1   
   104  103  104 1   
   105  103  106 1   
   106  103  111 1   
   107  104  105 2   
   108  104  114 1   
   109  106  107 1   
   110  106  112 1   
   111  106  113 1   
   112  107  108 1   
   113  107  109 1   
   114  114  115 1   
   115  114  125 1   
   116  115  116 1   
   117  115  118 1   
   118  115  126 1   
   119  116  117 2   
   120  116  134 1   
   121  118  119 1   
   122  118  127 1   
   123  118  128 1   
   124  119  120 ar  
   125  119  121 ar  
   126  120  122 ar  
   127  120  129 1   
   128  121  123 ar  
   129  121  130 1   
   130  122  124 ar  
   131  122  131 1   
   132  123  124 ar  
   133  123  132 1   
   134  124  133 1   
   135  134  135 1   
   136  134  140 1   
   137  135  136 1   
   138  135  138 1   
   139  135  141 1   
   140  136  137 2   
   141  136  148 1   
   142  138  139 1   
   143  138  142 1   
   144  138  143 1   
   145  139  140 1   
   146  139  144 1   
   147  139  145 1   
   148  140  146 1   
   149  140  147 1   
   150  148  149 1   
   151  148  157 1   
   152  149  150 1   
   153  149  152 1   
   154  149  158 1   
   155  150  151 2   
   156  150  163 1   
   157  152  153 1   
   158  152  159 1   
   159  152  160 1   
   160  153  154 1   
   161  153  161 1   
   162  153  162 1   
   163  154  155 1   
   164  154  156 1   
   165  163  164 1   
   166  163  168 1   
   167  164  165 1   
   168  164  166 1   
   169  164  167 1   
   170  170  171 1   
   171  170  172 1   
   172  173  174 1   
   173  173  175 1   
   174  176  177 1   
   175  176  178 1   
   176  179  180 1   
   177  179  181 1   
@<TRIPOS>SUBSTRUCTURE
     1 MOL         1 TEMP              0 ****  ****    0 ROOT
