@<TRIPOS>MOLECULE
MOL
  181   177     1     0     0
SMALL
resp


@<TRIPOS>ATOM
      1 C1          4.6940   -0.8970    3.0000 c3        1 MOL     -0.430108
      2 C2          6.0480   -0.1420    2.6000 c         1 MOL      0.668860
      3 O1          5.8760    0.7730    1.8260 o         1 MOL     -0.557306
      4 H1          4.8910   -1.9640    3.1050 hc        1 MOL      0.118790
      5 H2          4.3220   -0.5020    3.9450 hc        1 MOL      0.118790
      6 H3          3.9470   -0.7420    2.2210 hc        1 MOL      0.118790
      7 N1          7.2670   -0.5580    2.9070 n         1 MOL     -0.638473
      8 C3          8.5930   -0.1370    2.3420 c3        1 MOL      0.356521
      9 C4          8.7600   -0.4240    0.8570 c         1 MOL      0.424347
     10 O2          8.5900   -1.5680    0.4780 o         1 MOL     -0.519602
     11 C5          9.6260   -0.9460    3.2000 c3        1 MOL     -0.343176
     12 C6         11.1320   -0.6280    2.9320 c         1 MOL      0.796199
     13 O3         11.9970   -1.1830    3.6180 o         1 MOL     -0.748035
     14 O4         11.3960    0.2450    2.1030 o         1 MOL     -0.748035
     15 H4          7.2800   -1.2710    3.6200 hn        1 MOL      0.298634
     16 H5          8.8610    0.9040    2.4840 h1        1 MOL     -0.021113
     17 H6          9.5550   -2.0340    3.1020 hc        1 MOL      0.056797
     18 H7          9.4430   -0.6280    4.2270 hc        1 MOL      0.056797
     19 N2          9.0040    0.6210    0.0840 n         1 MOL     -0.239139
     20 C7          9.0370    0.6560   -1.3220 c3        1 MOL      0.058141
     21 C8          7.6640    0.2750   -1.9120 c         1 MOL      0.410819
     22 O5          7.4710   -0.2050   -3.0120 o         1 MOL     -0.536171
     23 C9          9.2840    2.1240   -1.5720 c3        1 MOL     -0.235766
     24 H8          9.1900    1.4490    0.6380 hn        1 MOL      0.232015
     25 H9          9.8870    0.1330   -1.7660 h1        1 MOL      0.096011
     26 H10         9.0170    2.4790   -2.5670 hc        1 MOL      0.062673
     27 H11         8.7060    2.7100   -0.8440 hc        1 MOL      0.062673
     28 H12        10.3160    2.4120   -1.3870 hc        1 MOL      0.062673
     29 N3          6.6140    0.3000   -1.0940 n         1 MOL     -0.196146
     30 C10         5.3340   -0.4140   -1.2090 c3        1 MOL      0.252889
     31 C11         4.5170   -0.0300   -2.4020 c         1 MOL      0.589302
     32 O6          4.1690   -0.9230   -3.1890 o         1 MOL     -0.514424
     33 C12         5.4860   -1.9320   -0.9650 c3        1 MOL     -0.164802
     34 C13         4.2100   -2.7860   -0.9220 c         1 MOL      0.701424
     35 O7          4.1900   -4.0290   -1.2370 o         1 MOL     -0.778651
     36 O8          3.1110   -2.3240   -0.5850 o         1 MOL     -0.778651
     37 H13         6.8710    0.5960   -0.1630 hn        1 MOL      0.039021
     38 H14         4.7200   -0.0710   -0.3800 h1        1 MOL     -0.015121
     39 H15         5.8910   -2.0660    0.0300 hc        1 MOL      0.056130
     40 H16         6.1810   -2.3710   -1.6750 hc        1 MOL      0.056130
     41 N4          4.4300    1.2480   -2.7730 n         1 MOL     -0.630032
     42 C14         4.0590    1.7400   -4.1500 c3        1 MOL      0.415266
     43 C15         2.8990    2.7100   -4.2410 c         1 MOL      0.418803
     44 O9          3.0190    3.8170   -4.7920 o         1 MOL     -0.550024
     45 H17         4.9240    1.9290   -2.2170 hn        1 MOL      0.276526
     46 H18         3.7580    0.8490   -4.7070 h1        1 MOL     -0.043181
     47 H19         4.8860    2.1750   -4.7130 h1        1 MOL     -0.043181
     48 N5          1.7570    2.3560   -3.5760 n         1 MOL     -0.319113
     49 C16         0.4920    3.1220   -3.3860 c3        1 MOL     -0.083426
     50 C17         0.6110    4.3400   -2.4640 c         1 MOL      0.653540
     51 O10         1.4320    4.4580   -1.6030 o         1 MOL     -0.510456
     52 C18        -0.6110    2.0650   -3.1200 c3        1 MOL     -0.268529
     53 C19        -0.7610    0.9300   -4.1510 c         1 MOL      0.685643
     54 N6         -0.7340   -0.3120   -3.6510 n         1 MOL     -0.792996
     55 O11        -0.8010    1.0970   -5.3400 o         1 MOL     -0.579786
     56 H20         1.7340    1.5050   -3.0540 hn        1 MOL      0.243306
     57 H21         0.1970    3.5380   -4.3580 h1        1 MOL      0.080353
     58 H22        -1.6090    2.4940   -3.1690 hc        1 MOL      0.097979
     59 H23        -0.4550    1.7260   -2.0980 hc        1 MOL      0.097979
     60 H24        -0.6470   -0.4600   -2.6600 hn        1 MOL      0.354780
     61 H25        -1.0210   -1.0610   -4.2700 hn        1 MOL      0.354780
     62 N7         -0.1920    5.3580   -2.7960 n         1 MOL     -0.484960
     63 C20        -0.3970    6.5250   -1.9380 c3        1 MOL     -0.040917
     64 C21        -1.6050    6.3960   -1.0470 c         1 MOL      0.537889
     65 O12        -2.6700    5.8140   -1.4190 o         1 MOL     -0.523188
     66 H26        -0.8160    5.1830   -3.5680 hn        1 MOL      0.293970
     67 H27        -0.5990    7.4090   -2.5400 h1        1 MOL      0.082679
     68 H28         0.5040    6.7830   -1.3740 h1        1 MOL      0.082679
     69 N8         -1.5410    6.9100    0.1720 n         1 MOL     -0.527616
     70 C22        -2.7140    6.9870    1.1130 c3        1 MOL     -0.137549
     71 C23        -3.0780    5.7370    1.8400 c         1 MOL      0.426337
     72 O13        -4.2800    5.7210    2.1780 o         1 MOL     -0.549957
     73 C24        -2.6050    8.1400    2.0930 c3        1 MOL      0.421425
     74 C25        -1.3970    8.1680    3.0380 c3        1 MOL     -0.247078
     75 O14        -2.3460    9.3060    1.3450 oh        1 MOL     -0.646995
     76 H29        -0.6200    7.1520    0.5010 hn        1 MOL      0.292636
     77 H30        -3.5250    7.2520    0.4350 h1        1 MOL      0.162081
     78 H31        -3.5300    8.1840    2.6720 h1        1 MOL      0.045365
     79 H32        -1.5020    9.2080    0.8900 ho        1 MOL      0.377598
     80 H33        -1.2670    7.2000    3.5140 hc        1 MOL      0.051406
     81 H34        -0.5150    8.2990    2.4050 hc        1 MOL      0.051406
     82 H35        -1.4030    8.9430    3.8100 hc        1 MOL      0.051406
     83 N9         -2.1360    4.7810    2.0080 n         1 MOL     -0.096093
     84 C26        -2.4230    3.4850    2.5260 c3        1 MOL      0.059699
     85 C27        -1.7860    2.4860    1.5350 c         1 MOL      0.258333
     86 O15        -0.7550    2.7550    0.8590 o         1 MOL     -0.497282
     87 C28        -1.9130    3.3370    3.9880 c3        1 MOL      0.128752
     88 C29        -0.3570    3.2350    4.0820 c3        1 MOL      0.081510
     89 C30        -2.5680    4.2690    5.0540 c3        1 MOL     -0.405583
     90 C31         0.5050    4.4490    3.8910 c3        1 MOL     -0.019546
     91 H36        -1.1940    5.0050    1.7070 hn        1 MOL      0.221717
     92 H37        -3.4950    3.3760    2.3990 h1        1 MOL      0.042722
     93 H38        -2.2280    2.3190    4.2340 hc        1 MOL     -0.033947
     94 H39        -0.1560    2.3680    3.4500 hc        1 MOL      0.005625
     95 H40        -0.1290    2.7720    5.0420 hc        1 MOL      0.005625
     96 H41        -3.6280    4.1970    4.8030 hc        1 MOL      0.095855
     97 H42        -2.3970    3.9660    6.0850 hc        1 MOL      0.095855
     98 H43        -2.2950    5.3060    4.8450 hc        1 MOL      0.095855
     99 H44         0.2700    4.8940    2.9270 hc        1 MOL     -0.005692
    100 H45         0.2230    5.1450    4.6740 hc        1 MOL     -0.005692
    101 H46         1.5740    4.2540    3.9980 hc        1 MOL     -0.005692
    102 N10        -2.3960    1.3200    1.3390 n         1 MOL     -0.288022
    103 C32        -1.9940    0.2550    0.4230 c3        1 MOL      0.383962
    104 C33        -3.2520   -0.4560   -0.1010 c         1 MOL      0.223264
    105 O16        -3.3280   -1.6850   -0.2430 o         1 MOL     -0.304738
    106 C34        -0.8800   -0.6570    1.0260 c3        1 MOL     -0.377600
    107 C35        -0.3990   -1.6670    0.0180 c         1 MOL      0.878580
    108 O17        -0.1790   -1.1920   -1.0980 o         1 MOL     -0.690081
    109 O18        -0.1000   -2.8230    0.3520 o         1 MOL     -0.690081
    110 H47        -3.2050    1.1410    1.9140 hn        1 MOL      0.221437
    111 H48        -1.5560    0.6860   -0.4740 h1        1 MOL     -0.024025
    112 H49        -1.1490   -1.1540    1.9530 hc        1 MOL      0.080388
    113 H50        -0.0620   -0.0410    1.3970 hc        1 MOL      0.080388
    114 N11        -4.2390    0.3480   -0.4310 n         1 MOL     -0.281028
    115 C36        -5.5830   -0.1070   -0.8140 c3        1 MOL     -0.029847
    116 C37        -6.1670   -1.2660    0.0830 c         1 MOL      0.237920
    117 O19        -6.1490   -1.1040    1.3250 o         1 MOL     -0.446526
    118 C38        -6.5310    1.1440   -0.8680 c3        1 MOL     -0.206960
    119 C39        -7.9190    0.7840   -1.3420 ca        1 MOL      0.028459
    120 C40        -8.1490    0.7480   -2.6970 ca        1 MOL     -0.142338
    121 C41        -8.8350    0.3070   -0.3710 ca        1 MOL     -0.142338
    122 C42        -9.3410    0.2330   -3.2230 ca        1 MOL     -0.101868
    123 C43       -10.0150   -0.2940   -0.9740 ca        1 MOL     -0.101868
    124 C44       -10.2950   -0.2770   -2.3710 ca        1 MOL     -0.119310
    125 H51        -4.0870    1.3290   -0.2580 hn        1 MOL      0.238983
    126 H52        -5.5570   -0.4870   -1.8290 h1        1 MOL      0.080185
    127 H53        -6.1260    1.9730   -1.4360 hc        1 MOL      0.112965
    128 H54        -6.6760    1.5410    0.1370 hc        1 MOL      0.112965
    129 H55        -7.4260    1.1730   -3.3640 ha        1 MOL      0.139760
    130 H56        -8.6530    0.2140    0.6890 ha        1 MOL      0.139760
    131 H57        -9.5160    0.3440   -4.2790 ha        1 MOL      0.105639
    132 H58       -10.7210   -0.5610   -0.2130 ha        1 MOL      0.105639
    133 H59       -11.2490   -0.6030   -2.7530 ha        1 MOL      0.109198
    134 N12        -6.6660   -2.4100   -0.4260 n         1 MOL     -0.071211
    135 C45        -7.1140   -3.4800    0.4280 c3        1 MOL      0.226614
    136 C46        -6.2120   -4.0120    1.5840 c         1 MOL      0.148420
    137 O20        -6.7490   -4.5720    2.5820 o         1 MOL     -0.493586
    138 C47        -7.5340   -4.5340   -0.5790 c3        1 MOL      0.108497
    139 C48        -8.0420   -3.7410   -1.7810 c3        1 MOL     -0.151378
    140 C49        -7.1400   -2.5690   -1.7800 c3        1 MOL      0.177250
    141 H60        -8.0180   -3.1500    0.9350 h1        1 MOL     -0.002177
    142 H61        -6.6430   -5.1120   -0.8210 hc        1 MOL     -0.015432
    143 H62        -8.2790   -5.1930   -0.1360 hc        1 MOL     -0.015432
    144 H63        -7.9600   -4.3240   -2.6940 hc        1 MOL      0.028606
    145 H64        -9.0560   -3.4150   -1.5240 hc        1 MOL      0.028606
    146 H65        -6.2610   -2.6710   -2.4060 h1        1 MOL     -0.003055
    147 H66        -7.7250   -1.7040   -2.0750 h1        1 MOL     -0.003055
    148 N13        -4.9220   -4.0840    1.3260 n         1 MOL     -0.016097
    149 C50        -3.9570   -4.7630    2.2160 c3        1 MOL     -0.210493
    150 C51        -3.7060   -3.9770    3.5480 c         1 MOL      0.441994
    151 O21        -3.3030   -4.6170    4.5340 o         1 MOL     -0.548944
    152 C52        -2.6060   -4.8420    1.3900 c3        1 MOL      0.387469
    153 C53        -2.5900   -5.6970    0.1660 c3        1 MOL     -0.503276
    154 C54        -1.1580   -5.7510   -0.4010 c         1 MOL      0.843441
    155 O22        -0.2020   -6.2290    0.2760 o         1 MOL     -0.781014
    156 O23        -0.8780   -5.0940   -1.4120 o         1 MOL     -0.781014
    157 H67        -4.4800   -3.6650    0.5180 hn        1 MOL      0.078627
    158 H68        -4.4030   -5.7000    2.5270 h1        1 MOL      0.139026
    159 H69        -1.8310   -5.2020    2.0680 hc        1 MOL     -0.092737
    160 H70        -2.3730   -3.8140    1.1510 hc        1 MOL     -0.092737
    161 H71        -3.2290   -5.2290   -0.5860 hc        1 MOL      0.099601
    162 H72        -2.8720   -6.6710    0.5840 hc        1 MOL      0.099601
    163 N14        -4.1170   -2.7230    3.6770 n         1 MOL     -0.082466
    164 C55        -3.9340   -1.9290    4.8680 c3        1 MOL     -0.401238
    165 H73        -3.8980   -0.8740    4.5980 h1        1 MOL      0.139443
    166 H74        -4.7660   -2.1000    5.5510 h1        1 MOL      0.139443
    167 H75        -3.0010   -2.2130    5.3540 h1        1 MOL      0.139443
    168 H76        -4.4900   -2.3380    2.8220 hn        1 MOL      0.168919
    169 Ca1         1.6430   -4.5110   -0.4790 Ca        1 MOL      1.741761
    170 O24         2.6120   -7.0290   -0.0830 oh        1 MOL     -0.790384
    171 H77         2.7410   -7.1900    0.8490 ho        1 MOL      0.391085
    172 H78         3.1840   -7.6630   -0.5190 ho        1 MOL      0.391085
    173 O25         1.1580   -2.9620   -2.5390 oh        1 MOL     -0.790384
    174 H79         1.6270   -2.5890   -3.2940 ho        1 MOL      0.391085
    175 H80         0.7000   -2.2180   -2.1550 ho        1 MOL      0.391085
    176 O26         2.7840   -6.0470   -2.9450 oh        1 MOL     -0.790384
    177 H81         3.7370   -6.0220   -3.0880 ho        1 MOL      0.391085
    178 H82         2.4210   -6.1710   -3.8150 ho        1 MOL      0.391085
    179 O27         2.6240   -4.4070    1.9220 oh        1 MOL     -0.790384
    180 H83         3.2680   -4.7670    2.5400 ho        1 MOL      0.391085
    181 H84         1.9200   -4.0790    2.4660 ho        1 MOL      0.391085
@<TRIPOS>BOND
     1    1    2 1   
     2    1    4 1   
     3    1    5 1   
     4    1    6 1   
     5    2    3 2   
     6    2    7 1   
     7    7    8 1   
     8    7   15 1   
     9    8    9 1   
    10    8   11 1   
    11    8   16 1   
    12    9   10 2   
    13    9   19 1   
    14   11   12 1   
    15   11   17 1   
    16   11   18 1   
    17   12   13 1   
    18   12   14 1   
    19   19   20 1   
    20   19   24 1   
    21   20   21 1   
    22   20   23 1   
    23   20   25 1   
    24   21   22 2   
    25   21   29 1   
    26   23   26 1   
    27   23   27 1   
    28   23   28 1   
    29   29   30 1   
    30   29   37 1   
    31   30   31 1   
    32   30   33 1   
    33   30   38 1   
    34   31   32 2   
    35   31   41 1   
    36   33   34 1   
    37   33   39 1   
    38   33   40 1   
    39   34   35 1   
    40   34   36 1   
    41   41   42 1   
    42   41   45 1   
    43   42   43 1   
    44   42   46 1   
    45   42   47 1   
    46   43   44 2   
    47   43   48 1   
    48   48   49 1   
    49   48   56 1   
    50   49   50 1   
    51   49   52 1   
    52   49   57 1   
    53   50   51 2   
    54   50   62 1   
    55   52   53 1   
    56   52   58 1   
    57   52   59 1   
    58   53   54 1   
    59   53   55 2   
    60   54   60 1   
    61   54   61 1   
    62   62   63 1   
    63   62   66 1   
    64   63   64 1   
    65   63   67 1   
    66   63   68 1   
    67   64   65 2   
    68   64   69 1   
    69   69   70 1   
    70   69   76 1   
    71   70   71 1   
    72   70   73 1   
    73   70   77 1   
    74   71   72 2   
    75   71   83 1   
    76   73   74 1   
    77   73   75 1   
    78   73   78 1   
    79   74   80 1   
    80   74   81 1   
    81   74   82 1   
    82   75   79 1   
    83   83   84 1   
    84   83   91 1   
    85   84   85 1   
    86   84   87 1   
    87   84   92 1   
    88   85   86 2   
    89   85  102 1   
    90   87   88 1   
    91   87   89 1   
    92   87   93 1   
    93   88   90 1   
    94   88   94 1   
    95   88   95 1   
    96   89   96 1   
    97   89   97 1   
    98   89   98 1   
    99   90   99 1   
   100   90  100 1   
   101   90  101 1   
   102  102  103 1   
   103  102  110 1   
   104  103  104 1   
   105  103  106 1   
   106  103  111 1   
   107  104  105 2   
   108  104  114 1   
   109  106  107 1   
   110  106  112 1   
   111  106  113 1   
   112  107  108 1   
   113  107  109 1   
   114  114  115 1   
   115  114  125 1   
   116  115  116 1   
   117  115  118 1   
   118  115  126 1   
   119  116  117 2   
   120  116  134 1   
   121  118  119 1   
   122  118  127 1   
   123  118  128 1   
   124  119  120 ar  
   125  119  121 ar  
   126  120  122 ar  
   127  120  129 1   
   128  121  123 ar  
   129  121  130 1   
   130  122  124 ar  
   131  122  131 1   
   132  123  124 ar  
   133  123  132 1   
   134  124  133 1   
   135  134  135 1   
   136  134  140 1   
   137  135  136 1   
   138  135  138 1   
   139  135  141 1   
   140  136  137 2   
   141  136  148 1   
   142  138  139 1   
   143  138  142 1   
   144  138  143 1   
   145  139  140 1   
   146  139  144 1   
   147  139  145 1   
   148  140  146 1   
   149  140  147 1   
   150  148  149 1   
   151  148  157 1   
   152  149  150 1   
   153  149  152 1   
   154  149  158 1   
   155  150  151 2   
   156  150  163 1   
   157  152  153 1   
   158  152  159 1   
   159  152  160 1   
   160  153  154 1   
   161  153  161 1   
   162  153  162 1   
   163  154  155 1   
   164  154  156 1   
   165  163  164 1   
   166  163  168 1   
   167  164  165 1   
   168  164  166 1   
   169  164  167 1   
   170  170  171 1   
   171  170  172 1   
   172  173  174 1   
   173  173  175 1   
   174  176  177 1   
   175  176  178 1   
   176  179  180 1   
   177  179  181 1   
@<TRIPOS>SUBSTRUCTURE
     1 MOL         1 TEMP              0 ****  ****    0 ROOT
