@<TRIPOS>MOLECULE
MOL
  182   178     1     0     0
SMALL
resp


@<TRIPOS>ATOM
      1 C1          2.2400   -5.5930    5.6520 c3        1 MOL     -0.467312
      2 C2          2.0690   -5.0270    4.2080 c         1 MOL      0.758213
      3 O1          1.3120   -5.3960    3.3730 o         1 MOL     -0.617905
      4 H1          2.6820   -6.5880    5.6010 hc        1 MOL      0.125945
      5 H2          2.8930   -4.9340    6.2250 hc        1 MOL      0.125945
      6 H3          1.2670   -5.6530    6.1380 hc        1 MOL      0.125945
      7 N1          2.8160   -3.9730    3.8480 n         1 MOL     -0.517313
      8 C3          2.8840   -3.4150    2.4970 c3        1 MOL     -0.161962
      9 C4          3.4310   -4.3980    1.4590 c         1 MOL      0.675487
     10 O2          4.5830   -4.8090    1.6010 o         1 MOL     -0.550692
     11 C5          3.8050   -2.1440    2.6210 c3        1 MOL      0.150537
     12 C6          3.6810   -1.3110    1.3550 c         1 MOL      0.251544
     13 O3          4.1050   -0.1610    1.5090 o         1 MOL     -0.600493
     14 O4          3.2010   -1.7350    0.2870 o         1 MOL     -0.600493
     15 H4          3.3080   -3.4610    4.5630 hn        1 MOL      0.283513
     16 H5          1.8690   -3.1260    2.2380 h1        1 MOL      0.010395
     17 H6          4.8530   -2.4340    2.7410 hc        1 MOL      0.015063
     18 H7          3.4830   -1.6180    3.5240 hc        1 MOL      0.015063
     19 N2          2.7270   -4.8130    0.4320 n         1 MOL     -0.282264
     20 C7          3.2310   -5.6810   -0.7020 c3        1 MOL     -0.277327
     21 C8          4.4570   -5.0780   -1.4790 c         1 MOL      0.534144
     22 O5          5.4080   -5.7490   -1.9250 o         1 MOL     -0.528035
     23 C9          2.1450   -5.9470   -1.7330 c3        1 MOL      0.014377
     24 C10         1.0890   -6.9840   -1.2350 c3        1 MOL      0.091794
     25 C11        -0.0230   -7.0760   -2.2500 c3        1 MOL     -0.164136
     26 C12        -1.1920   -7.9810   -1.6230 c3        1 MOL      0.131446
     27 N3         -2.3420   -8.0630   -2.5210 n4        1 MOL     -0.310604
     28 H8          1.7880   -4.4700    0.2900 hn        1 MOL      0.253849
     29 H9          3.6410   -6.5670   -0.2170 h1        1 MOL      0.148574
     30 H10         2.5370   -6.4600   -2.6220 hc        1 MOL      0.042281
     31 H11         1.7300   -5.0570   -2.2100 hc        1 MOL      0.042281
     32 H12         0.6920   -6.7010   -0.2590 hc        1 MOL      0.017573
     33 H13         1.6230   -7.9270   -1.1040 hc        1 MOL      0.017573
     34 H14         0.4090   -7.5300   -3.1440 hc        1 MOL      0.053220
     35 H15        -0.3760   -6.0510   -2.3820 hc        1 MOL      0.053220
     36 H16        -1.3460   -7.6770   -0.5830 hx        1 MOL      0.054878
     37 H17        -0.7000   -8.9350   -1.4470 hx        1 MOL      0.054878
     38 H18        -2.8580   -7.2080   -2.6440 hn        1 MOL      0.259986
     39 H19        -2.0490   -8.3650   -3.4390 hn        1 MOL      0.259986
     40 H20        -3.0160   -8.7320   -2.1950 hn        1 MOL      0.259986
     41 N4          4.3690   -3.7770   -1.7860 n         1 MOL     -0.364562
     42 C13         5.4740   -3.1400   -2.5340 c3        1 MOL      0.153979
     43 C14         6.5470   -2.6510   -1.5980 c         1 MOL      0.506786
     44 O6          7.6590   -3.0340   -1.8250 o         1 MOL     -0.547890
     45 C15         4.9750   -2.0130   -3.4750 c3        1 MOL     -0.366903
     46 C16         3.9070   -1.1040   -2.8980 c         1 MOL      0.841838
     47 O7          4.2380   -0.3110   -1.9980 o         1 MOL     -0.760324
     48 O8          2.7220   -1.2200   -3.3150 o         1 MOL     -0.760324
     49 H21         3.5600   -3.2650   -1.4600 hn        1 MOL      0.214539
     50 H22         5.9560   -3.8330   -3.2290 h1        1 MOL      0.079751
     51 H23         4.5070   -2.5260   -4.3080 hc        1 MOL      0.080255
     52 H24         5.8010   -1.3700   -3.8020 hc        1 MOL      0.080255
     53 N5          6.2390   -1.9430   -0.4790 n         1 MOL     -0.179489
     54 C17         7.2430   -1.3460    0.4680 c3        1 MOL     -0.298647
     55 C18         7.4740    0.1710    0.1140 c         1 MOL      0.565920
     56 O9          8.4390    0.7840    0.5780 o         1 MOL     -0.571772
     57 H25         5.2530   -1.8280   -0.2800 hn        1 MOL      0.208692
     58 H26         8.2010   -1.8610    0.5590 h1        1 MOL      0.164126
     59 H27         6.7960   -1.3950    1.4640 h1        1 MOL      0.164126
     60 N6          6.5560    0.7660   -0.6700 n         1 MOL     -0.402611
     61 C19         6.5390    2.1710   -1.0810 c3        1 MOL      0.520645
     62 C20         5.2710    2.9280   -0.6520 c         1 MOL      0.389169
     63 O10         4.2600    2.2560   -0.4260 o         1 MOL     -0.474991
     64 C21         6.6730    2.1390   -2.6690 c3        1 MOL     -0.398737
     65 C22         7.3850    3.3410   -3.2610 c         1 MOL      0.630554
     66 N7          8.3760    3.0640   -4.0640 n         1 MOL     -0.753345
     67 O11         7.1280    4.4810   -2.9330 o         1 MOL     -0.579230
     68 H28         5.7830    0.1710   -0.9150 hn        1 MOL      0.128606
     69 H29         7.3560    2.6590   -0.5550 h1        1 MOL     -0.048664
     70 H30         5.6390    2.0560   -3.0120 hc        1 MOL      0.124138
     71 H31         7.2660    1.2510   -2.8920 hc        1 MOL      0.124138
     72 H32         8.5950    2.1310   -4.3760 hn        1 MOL      0.368757
     73 H33         8.8830    3.8820   -4.3780 hn        1 MOL      0.368757
     74 N8          5.2880    4.2640   -0.7420 n         1 MOL     -0.463366
     75 C23         4.0990    5.0820   -0.8320 c3        1 MOL      0.075354
     76 C24         3.1470    4.8400    0.4040 c         1 MOL      0.468736
     77 O12         3.7150    4.4630    1.4250 o         1 MOL     -0.443378
     78 H34         6.1720    4.6470   -1.0400 hn        1 MOL      0.317275
     79 H35         3.6820    4.8950   -1.8280 h1        1 MOL      0.048573
     80 H36         4.3330    6.1430   -0.8960 h1        1 MOL      0.048573
     81 N9          1.8720    5.0770    0.2620 n         1 MOL     -0.579596
     82 C25         0.9360    4.7840    1.3370 c3        1 MOL      0.287556
     83 C26         0.9110    3.2370    1.6780 c         1 MOL      0.499441
     84 O13         1.6150    2.4300    1.0960 o         1 MOL     -0.508516
     85 C27        -0.4480    5.3290    0.9420 c3        1 MOL     -0.289048
     86 C28        -0.4420    6.8230    0.4430 ca        1 MOL      0.164315
     87 C29        -0.3170    7.8430    1.3520 ca        1 MOL     -0.213548
     88 C30        -0.7600    7.1360   -0.9180 ca        1 MOL     -0.213548
     89 C31        -0.3080    9.2270    0.9040 ca        1 MOL     -0.221749
     90 C32        -0.8320    8.4650   -1.3510 ca        1 MOL     -0.221749
     91 C33        -0.6680    9.5110   -0.4440 ca        1 MOL      0.315243
     92 O14        -0.7190   10.7650   -0.8860 oh        1 MOL     -0.460522
     93 H37         1.5580    5.6110   -0.5340 hn        1 MOL      0.297594
     94 H38         1.2200    5.3190    2.2440 h1        1 MOL      0.054058
     95 H39        -1.1770    5.1690    1.7350 hc        1 MOL      0.078180
     96 H40        -0.6900    4.7910    0.0260 hc        1 MOL      0.078180
     97 H41        -0.0130    7.5920    2.3580 ha        1 MOL      0.141506
     98 H42        -1.0140    6.3210   -1.5770 ha        1 MOL      0.141506
     99 H43        -0.0900   10.0490    1.5590 ha        1 MOL      0.154426
    100 H44        -1.1740    8.5960   -2.3560 ha        1 MOL      0.154426
    101 H45        -1.0050   11.3750   -0.1940 ho        1 MOL      0.367604
    102 N10         0.1110    2.7930    2.6640 n         1 MOL     -0.769834
    103 C34         0.1050    1.3880    3.1940 c3        1 MOL      0.230898
    104 C35        -0.2670    0.3030    2.1890 c         1 MOL      0.609398
    105 O15         0.5700   -0.3160    1.4580 o         1 MOL     -0.503939
    106 C36         1.4300    1.0760    3.9130 c3        1 MOL      0.071268
    107 C37         1.3680   -0.2820    4.8090 c3        1 MOL     -0.312384
    108 C38         1.8470    2.3110    4.7570 c3        1 MOL     -0.055128
    109 C39         0.1190   -0.4710    5.7250 c3        1 MOL     -0.224508
    110 H46        -0.3430    3.4580    3.2740 hn        1 MOL      0.366971
    111 H47        -0.7660    1.3040    3.8570 h1        1 MOL      0.019471
    112 H48         2.1390    0.8810    3.1200 hc        1 MOL      0.076021
    113 H49         2.2070   -0.2060    5.5050 hc        1 MOL      0.136648
    114 H50         1.4870   -1.1680    4.1840 hc        1 MOL      0.136648
    115 H51         2.1390    3.1620    4.1380 hc        1 MOL      0.022196
    116 H52         1.0800    2.6570    5.4360 hc        1 MOL      0.022196
    117 H53         2.7140    2.0530    5.3660 hc        1 MOL      0.022196
    118 H54        -0.7760   -0.4770    5.1110 hc        1 MOL      0.060696
    119 H55         0.1530   -1.2660    6.4740 hc        1 MOL      0.060696
    120 H56         0.1330    0.4410    6.3200 hc        1 MOL      0.060696
    121 N11        -1.5960    0.0700    2.0350 n         1 MOL     -0.459316
    122 C40        -2.0650   -1.1590    1.3400 c3        1 MOL      0.018076
    123 C41        -3.4010   -0.9470    0.6700 c         1 MOL      0.514256
    124 O16        -3.8930   -1.9450    0.0840 o         1 MOL     -0.552780
    125 C42        -2.1470   -2.3290    2.3700 c3        1 MOL     -0.052769
    126 O17        -0.8640   -2.7590    2.8850 oh        1 MOL     -0.447598
    127 H57        -2.2160    0.7010    2.5320 hn        1 MOL      0.266401
    128 H58        -1.3330   -1.3700    0.5590 h1        1 MOL      0.153671
    129 H59        -2.5830   -3.1560    1.8070 h1        1 MOL      0.084044
    130 H60        -2.8180   -2.1720    3.2120 h1        1 MOL      0.084044
    131 H61        -0.9420   -3.4620    3.5290 ho        1 MOL      0.378027
    132 N12        -4.0590    0.1970    0.6860 n         1 MOL     -0.415370
    133 C43        -5.2380    0.4120   -0.0910 c3        1 MOL     -0.008384
    134 C44        -5.1400    0.2700   -1.6420 c         1 MOL      0.662977
    135 O18        -4.1560    0.7660   -2.2050 o         1 MOL     -0.574940
    136 C45        -5.9460    1.6970    0.2550 c3        1 MOL      0.065126
    137 H62        -3.5270    0.9670    1.0520 hn        1 MOL      0.258647
    138 H63        -5.8170   -0.4280    0.2910 h1        1 MOL      0.114756
    139 H64        -5.3890    2.5430   -0.1340 hc        1 MOL     -0.003935
    140 H65        -6.9550    1.7270   -0.1760 hc        1 MOL     -0.003935
    141 H66        -5.8840    1.8420    1.3360 hc        1 MOL     -0.003935
    142 N13        -6.1510   -0.2580   -2.3630 n         1 MOL     -0.692550
    143 C46        -7.4470   -0.7620   -1.8540 c3        1 MOL      0.501591
    144 C47        -8.6260    0.2420   -2.1770 c         1 MOL      0.341422
    145 O19        -8.6680    0.7660   -3.3040 o         1 MOL     -0.533072
    146 C48        -7.6130   -2.2340   -2.2890 c3        1 MOL     -0.436093
    147 H67        -5.9660   -0.3470   -3.3430 hn        1 MOL      0.353825
    148 H68        -7.4370   -0.7530   -0.7570 h1        1 MOL     -0.074682
    149 H69        -8.0530   -2.1720   -3.2820 hc        1 MOL      0.121828
    150 H70        -6.6890   -2.8050   -2.3250 hc        1 MOL      0.121828
    151 H71        -8.3960   -2.8220   -1.8020 hc        1 MOL      0.121828
    152 N14        -9.7580    0.4420   -1.4820 n         1 MOL     -0.217353
    153 C49       -10.0940   -0.0740   -0.1680 c3        1 MOL     -0.220898
    154 C50        -9.7710    0.9210    1.0020 c         1 MOL      0.426724
    155 O20        -9.3270    0.4810    2.1070 o         1 MOL     -0.512945
    156 C51       -11.5360   -0.5810   -0.2180 c3        1 MOL      0.109533
    157 C52       -11.7540   -1.8110   -1.1130 c3        1 MOL     -0.238528
    158 C53       -13.2200   -2.1900   -1.3350 c         1 MOL      0.636438
    159 O21       -13.7600   -3.0320   -0.5040 o         1 MOL     -0.633705
    160 O22       -13.9240   -1.6860   -2.2680 o         1 MOL     -0.633705
    161 H72       -10.3090    1.2260   -1.7920 hn        1 MOL      0.265482
    162 H73        -9.5560   -0.9820    0.0960 h1        1 MOL      0.132127
    163 H74       -12.2660    0.1720   -0.5010 hc        1 MOL      0.029187
    164 H75       -11.7940   -0.8420    0.8160 hc        1 MOL      0.029187
    165 H76       -11.3210   -2.7200   -0.7070 hc        1 MOL      0.042284
    166 H77       -11.4000   -1.4560   -2.0800 hc        1 MOL      0.042284
    167 N15        -9.9660    2.2190    0.7980 n         1 MOL     -0.328543
    168 C54        -9.5730    3.2470    1.8230 c3        1 MOL     -0.178450
    169 H78       -10.2090    4.1250    1.7190 h1        1 MOL      0.107916
    170 H79        -9.6920    2.8280    2.8230 h1        1 MOL      0.107916
    171 H80        -8.5320    3.5340    1.6710 h1        1 MOL      0.107916
    172 H81       -10.2990    2.4890   -0.1170 hn        1 MOL      0.269757
    173 Ca1         2.3370    0.4890   -0.5660 Ca        1 MOL      1.799476
    174 O23         0.6440   -1.3720   -1.5180 oh        1 MOL     -0.880369
    175 H82         1.2490   -1.7250   -2.1730 ho        1 MOL      0.421930
    176 H83        -0.2210   -1.5130   -1.8980 ho        1 MOL      0.421930
    177 O24         2.3780    2.0280   -2.8220 oh        1 MOL     -0.880369
    178 H84         1.5130    2.0890   -3.2370 ho        1 MOL      0.421930
    179 H85         2.9630    2.4830   -3.4270 ho        1 MOL      0.421930
    180 O25         0.1200    1.8410   -1.1450 oh        1 MOL     -0.880369
    181 H86         0.3700    2.6390   -1.6150 ho        1 MOL      0.421930
    182 H87        -0.8260    1.9110   -1.0420 ho        1 MOL      0.421930
@<TRIPOS>BOND
     1    1    2 1   
     2    1    4 1   
     3    1    5 1   
     4    1    6 1   
     5    2    3 2   
     6    2    7 1   
     7    7    8 1   
     8    7   15 1   
     9    8    9 1   
    10    8   11 1   
    11    8   16 1   
    12    9   10 2   
    13    9   19 1   
    14   11   12 1   
    15   11   17 1   
    16   11   18 1   
    17   12   13 1   
    18   12   14 1   
    19   19   20 1   
    20   19   28 1   
    21   20   21 1   
    22   20   23 1   
    23   20   29 1   
    24   21   22 2   
    25   21   41 1   
    26   23   24 1   
    27   23   30 1   
    28   23   31 1   
    29   24   25 1   
    30   24   32 1   
    31   24   33 1   
    32   25   26 1   
    33   25   34 1   
    34   25   35 1   
    35   26   27 1   
    36   26   36 1   
    37   26   37 1   
    38   27   38 1   
    39   27   39 1   
    40   27   40 1   
    41   41   42 1   
    42   41   49 1   
    43   42   43 1   
    44   42   45 1   
    45   42   50 1   
    46   43   44 2   
    47   43   53 1   
    48   45   46 1   
    49   45   51 1   
    50   45   52 1   
    51   46   47 1   
    52   46   48 1   
    53   53   54 1   
    54   53   57 1   
    55   54   55 1   
    56   54   58 1   
    57   54   59 1   
    58   55   56 2   
    59   55   60 1   
    60   60   61 1   
    61   60   68 1   
    62   61   62 1   
    63   61   64 1   
    64   61   69 1   
    65   62   63 2   
    66   62   74 1   
    67   64   65 1   
    68   64   70 1   
    69   64   71 1   
    70   65   66 1   
    71   65   67 2   
    72   66   72 1   
    73   66   73 1   
    74   74   75 1   
    75   74   78 1   
    76   75   76 1   
    77   75   79 1   
    78   75   80 1   
    79   76   77 2   
    80   76   81 1   
    81   81   82 1   
    82   81   93 1   
    83   82   83 1   
    84   82   85 1   
    85   82   94 1   
    86   83   84 2   
    87   83  102 1   
    88   85   86 1   
    89   85   95 1   
    90   85   96 1   
    91   86   87 ar  
    92   86   88 ar  
    93   87   89 ar  
    94   87   97 1   
    95   88   90 ar  
    96   88   98 1   
    97   89   91 ar  
    98   89   99 1   
    99   90   91 ar  
   100   90  100 1   
   101   91   92 1   
   102   92  101 1   
   103  102  103 1   
   104  102  110 1   
   105  103  104 1   
   106  103  106 1   
   107  103  111 1   
   108  104  105 2   
   109  104  121 1   
   110  106  107 1   
   111  106  108 1   
   112  106  112 1   
   113  107  109 1   
   114  107  113 1   
   115  107  114 1   
   116  108  115 1   
   117  108  116 1   
   118  108  117 1   
   119  109  118 1   
   120  109  119 1   
   121  109  120 1   
   122  121  122 1   
   123  121  127 1   
   124  122  123 1   
   125  122  125 1   
   126  122  128 1   
   127  123  124 2   
   128  123  132 1   
   129  125  126 1   
   130  125  129 1   
   131  125  130 1   
   132  126  131 1   
   133  132  133 1   
   134  132  137 1   
   135  133  134 1   
   136  133  136 1   
   137  133  138 1   
   138  134  135 2   
   139  134  142 1   
   140  136  139 1   
   141  136  140 1   
   142  136  141 1   
   143  142  143 1   
   144  142  147 1   
   145  143  144 1   
   146  143  146 1   
   147  143  148 1   
   148  144  145 2   
   149  144  152 1   
   150  146  149 1   
   151  146  150 1   
   152  146  151 1   
   153  152  153 1   
   154  152  161 1   
   155  153  154 1   
   156  153  156 1   
   157  153  162 1   
   158  154  155 2   
   159  154  167 1   
   160  156  157 1   
   161  156  163 1   
   162  156  164 1   
   163  157  158 1   
   164  157  165 1   
   165  157  166 1   
   166  158  159 1   
   167  158  160 1   
   168  167  168 1   
   169  167  172 1   
   170  168  169 1   
   171  168  170 1   
   172  168  171 1   
   173  174  175 1   
   174  174  176 1   
   175  177  178 1   
   176  177  179 1   
   177  180  181 1   
   178  180  182 1   
@<TRIPOS>SUBSTRUCTURE
     1 MOL         1 TEMP              0 ****  ****    0 ROOT
