@<TRIPOS>MOLECULE
MOL
  195   189     1     0     0
SMALL
resp


@<TRIPOS>ATOM
      1 C1          2.0790    3.4100    3.0590 c3        1 MOL     -0.115116
      2 C2          1.3640    3.6710    1.7020 c         1 MOL      0.624941
      3 O1          0.6120    2.8140    1.1680 o         1 MOL     -0.534909
      4 H1          3.1580    3.4520    2.9140 hc        1 MOL      0.014046
      5 H2          1.7810    4.1720    3.7790 hc        1 MOL      0.014046
      6 H3          1.8010    2.4250    3.4340 hc        1 MOL      0.014046
      7 N1          1.5990    4.8360    1.1410 n         1 MOL     -0.208221
      8 C3          0.9970    5.3080   -0.0820 c3        1 MOL     -0.129830
      9 C4         -0.5330    5.1490   -0.3280 c         1 MOL      0.694150
     10 O2         -1.0440    4.9660   -1.4680 o         1 MOL     -0.518129
     11 C5          1.8190    4.8870   -1.3200 c3        1 MOL     -0.665656
     12 C6          3.3380    4.9650   -1.0690 c         1 MOL      1.078714
     13 O3          4.0190    3.8980   -1.0800 o         1 MOL     -0.832009
     14 O4          3.9130    6.0660   -0.8930 o         1 MOL     -0.832009
     15 H4          2.3520    5.3730    1.5450 hn        1 MOL      0.119265
     16 H5          1.0170    6.3850    0.0830 h1        1 MOL      0.121435
     17 H6          1.4630    5.5730   -2.0970 hc        1 MOL      0.198482
     18 H7          1.6320    3.8240   -1.4180 hc        1 MOL      0.198482
     19 N2         -1.2940    5.2610    0.7630 n         1 MOL     -0.476922
     20 C7         -2.8120    5.4860    0.8630 c3        1 MOL     -0.049163
     21 C8         -3.3360    6.6570    0.0090 c         1 MOL      0.370261
     22 O5         -2.6440    7.6130   -0.2650 o         1 MOL     -0.552628
     23 C9         -3.2240    5.6770    2.3880 c3        1 MOL      0.062792
     24 C10        -3.0920    7.0750    3.0260 c3        1 MOL      0.224230
     25 C11        -2.4410    4.6980    3.3130 c3        1 MOL     -0.349750
     26 C12        -3.6830    7.3270    4.3540 c3        1 MOL     -0.109065
     27 H8         -0.7470    5.4170    1.5940 hn        1 MOL      0.192333
     28 H9         -3.3030    4.5510    0.5820 h1        1 MOL      0.163206
     29 H10        -4.2550    5.3010    2.4250 hc        1 MOL      0.098358
     30 H11        -3.6360    7.8020    2.4270 hc        1 MOL     -0.033540
     31 H12        -2.0820    7.4900    3.0910 hc        1 MOL     -0.033540
     32 H13        -1.5080    5.0610    3.7250 hc        1 MOL      0.079203
     33 H14        -3.0670    4.3210    4.1250 hc        1 MOL      0.079203
     34 H15        -2.2510    3.7920    2.7330 hc        1 MOL      0.079203
     35 H16        -3.6540    8.3920    4.5780 hc        1 MOL      0.005374
     36 H17        -4.7160    6.9800    4.3450 hc        1 MOL      0.005374
     37 H18        -3.1140    6.8230    5.1380 hc        1 MOL      0.005374
     38 N3         -4.5850    6.7170   -0.4160 n         1 MOL     -0.254747
     39 C13        -5.6400    5.7260   -0.1520 c3        1 MOL     -0.043651
     40 C14        -5.4510    4.4350   -0.8990 c         1 MOL      0.533380
     41 O6         -5.5910    3.3490   -0.3170 o         1 MOL     -0.533977
     42 C15        -7.0640    6.2880   -0.5610 c3        1 MOL     -0.200400
     43 C16        -8.1270    5.3090   -0.1730 c         1 MOL      0.741556
     44 O7         -8.8360    4.8840   -1.1030 o         1 MOL     -0.686341
     45 O8         -8.4050    5.0630    1.0100 o         1 MOL     -0.686341
     46 H19        -4.8360    7.5600   -0.9080 hn        1 MOL      0.255308
     47 H20        -5.6210    5.3900    0.8820 h1        1 MOL     -0.000806
     48 H21        -6.9990    6.4880   -1.6330 hc        1 MOL      0.029857
     49 H22        -7.2030    7.2450   -0.0390 hc        1 MOL      0.029857
     50 N4         -5.0980    4.3390   -2.1780 n         1 MOL     -0.281938
     51 C17        -4.6260    3.1080   -2.8510 c3        1 MOL     -0.462925
     52 C18        -5.7440    2.0570   -3.0660 c         1 MOL      0.765162
     53 O9         -6.7600    2.2890   -3.6320 o         1 MOL     -0.567230
     54 H23        -4.8790    5.2420   -2.5820 hn        1 MOL      0.247709
     55 H24        -3.8980    2.6230   -2.1990 h1        1 MOL      0.184729
     56 H25        -4.3050    3.4850   -3.8230 h1        1 MOL      0.184729
     57 N5         -5.3410    0.8200   -2.7600 n         1 MOL     -0.559494
     58 C19        -6.0530   -0.3640   -3.1920 c3        1 MOL      0.150132
     59 C20        -6.9520   -1.1170   -2.1450 c         1 MOL      0.425848
     60 O10        -7.8130   -1.8870   -2.4510 o         1 MOL     -0.555816
     61 C21        -5.0560   -1.4580   -3.8070 c3        1 MOL     -0.277567
     62 C22        -3.9060   -1.7950   -2.9110 c         1 MOL      0.674138
     63 O11        -2.7860   -1.1440   -3.0290 o         1 MOL     -0.690347
     64 O12        -4.1970   -2.5810   -1.9490 o         1 MOL     -0.690347
     65 H26        -4.4580    0.7950   -2.2630 hn        1 MOL      0.317412
     66 H27        -6.7280   -0.1610   -4.0240 h1        1 MOL      0.074497
     67 H28        -4.7330   -1.0150   -4.7420 hc        1 MOL      0.050263
     68 H29        -5.7540   -2.2820   -3.9950 hc        1 MOL      0.050263
     69 N6         -6.7250   -0.8930   -0.8290 n         1 MOL     -0.198185
     70 C23        -7.5320   -1.3740    0.3290 c3        1 MOL     -0.102725
     71 C24        -7.2760   -2.8530    0.6570 c         1 MOL      0.416978
     72 O13        -7.9200   -3.4240    1.5890 o         1 MOL     -0.595666
     73 H30        -6.1130   -0.1100   -0.6550 hn        1 MOL      0.215833
     74 H31        -8.6010   -1.2630    0.1720 h1        1 MOL      0.096753
     75 H32        -7.2520   -0.7370    1.1670 h1        1 MOL      0.096753
     76 N7         -6.4160   -3.4750   -0.1240 n         1 MOL     -0.054510
     77 C25        -5.8660   -4.8340    0.1060 c3        1 MOL     -0.011315
     78 C26        -5.3170   -5.0650    1.5550 c         1 MOL      0.501615
     79 O14        -5.3360   -6.1740    2.0060 o         1 MOL     -0.508168
     80 C27        -6.8480   -5.8150   -0.4490 c3        1 MOL      0.043906
     81 C28        -7.2360   -5.5830   -1.9280 c3        1 MOL     -0.280991
     82 C29        -7.9620   -6.6120   -2.8240 c         1 MOL      0.629352
     83 N8         -8.8080   -6.1280   -3.6860 n         1 MOL     -0.739259
     84 O15        -8.0730   -7.7930   -2.6300 o         1 MOL     -0.579604
     85 H33        -5.9470   -2.9170   -0.8200 hn        1 MOL      0.102938
     86 H34        -4.9440   -4.9650   -0.4700 h1        1 MOL      0.108320
     87 H35        -7.7260   -5.9140    0.1980 hc        1 MOL      0.021693
     88 H36        -6.3850   -6.7850   -0.2700 hc        1 MOL      0.021693
     89 H37        -6.3610   -5.2030   -2.4630 hc        1 MOL      0.108952
     90 H38        -7.9930   -4.8170   -1.8240 hc        1 MOL      0.108952
     91 H39        -8.9000   -5.1360   -3.7960 hn        1 MOL      0.334934
     92 H40        -9.3690   -6.8040   -4.1840 hn        1 MOL      0.334934
     93 N9         -4.5970   -4.0710    2.1220 n         1 MOL     -0.400274
     94 C30        -3.9250   -4.0140    3.4920 c3        1 MOL      0.007105
     95 C31        -2.4660   -3.5510    3.5640 c         1 MOL      0.517598
     96 O16        -1.7290   -3.7720    4.5460 o         1 MOL     -0.585896
     97 C32        -4.8330   -3.1100    4.3780 c3        1 MOL      0.104110
     98 C33        -5.1790   -1.7540    3.6720 c3        1 MOL     -0.347333
     99 C34        -6.2510   -3.7200    4.7530 c3        1 MOL     -0.347333
    100 H41        -4.4270   -3.2720    1.5360 hn        1 MOL      0.180104
    101 H42        -3.8760   -5.0240    3.8810 h1        1 MOL      0.108691
    102 H43        -4.3500   -2.8890    5.3310 hc        1 MOL      0.015609
    103 H44        -4.2640   -1.2450    3.3700 hc        1 MOL      0.098781
    104 H45        -5.7830   -1.9280    2.7790 hc        1 MOL      0.098781
    105 H46        -5.7090   -1.0780    4.3280 hc        1 MOL      0.098781
    106 H47        -6.0920   -4.7180    5.1740 hc        1 MOL      0.098781
    107 H48        -6.8420   -3.0830    5.4080 hc        1 MOL      0.098781
    108 H49        -6.9160   -3.9440    3.9220 hc        1 MOL      0.098781
    109 N10        -1.9660   -2.7150    2.6560 n         1 MOL     -0.514996
    110 C35        -0.5690   -2.3000    2.5430 c3        1 MOL      0.422826
    111 C36         0.0160   -2.7610    1.1670 c         1 MOL      0.442948
    112 O17        -0.7090   -3.2360    0.3050 o         1 MOL     -0.518089
    113 C37        -0.5290   -0.7560    2.8030 c3        1 MOL     -0.196180
    114 C38         0.6480   -0.3750    3.6470 c         1 MOL      0.481062
    115 N11         0.3510   -0.2050    4.9030 n         1 MOL     -0.648950
    116 O18         1.7830   -0.3360    3.2050 o         1 MOL     -0.501132
    117 H50        -2.5160   -2.4310    1.8660 hn        1 MOL      0.305704
    118 H51        -0.0890   -2.8330    3.3600 h1        1 MOL      0.036328
    119 H52        -1.5180   -0.4250    3.1360 hc        1 MOL      0.061968
    120 H53        -0.3950   -0.2390    1.8490 hc        1 MOL      0.061968
    121 H54        -0.6220   -0.1090    5.1420 hn        1 MOL      0.325103
    122 H55         1.0720    0.1730    5.4950 hn        1 MOL      0.325103
    123 N12         1.2980   -2.5850    0.9570 n         1 MOL     -0.535437
    124 C39         2.0270   -3.1210   -0.2240 c3        1 MOL      0.252646
    125 C40         3.4700   -3.4280    0.2500 c         1 MOL      0.471843
    126 O19         4.0100   -2.7960    1.1550 o         1 MOL     -0.506431
    127 C41         1.9520   -2.1770   -1.4070 c3        1 MOL     -0.086560
    128 C42         2.8870   -2.4870   -2.5260 ca        1 MOL     -0.052123
    129 C43         4.1810   -1.7990   -2.7130 ca        1 MOL     -0.125961
    130 C44         2.5600   -3.5920   -3.4180 ca        1 MOL     -0.125961
    131 C45         5.1230   -2.2980   -3.7060 ca        1 MOL     -0.252002
    132 C46         3.5020   -4.0360   -4.4310 ca        1 MOL     -0.252002
    133 C47         4.7790   -3.4130   -4.5200 ca        1 MOL      0.316799
    134 O20         5.6460   -3.9120   -5.4790 oh        1 MOL     -0.527738
    135 H56         1.8410   -2.3760    1.7810 hn        1 MOL      0.243903
    136 H57         1.5870   -4.0670   -0.5680 h1        1 MOL      0.032105
    137 H58         2.1300   -1.1740   -1.0080 hc        1 MOL      0.103912
    138 H59         0.9310   -2.2380   -1.7720 hc        1 MOL      0.103912
    139 H60         4.5250   -1.1100   -1.9580 ha        1 MOL      0.136311
    140 H61         1.5580   -3.9910   -3.4070 ha        1 MOL      0.136311
    141 H62         6.1090   -1.8710   -3.8030 ha        1 MOL      0.150839
    142 H63         3.2580   -4.8950   -5.0430 ha        1 MOL      0.150839
    143 H64         6.5050   -3.5000   -5.5060 ho        1 MOL      0.381840
    144 N13         4.1650   -4.5180   -0.1910 n         1 MOL     -0.495234
    145 C48         5.5240   -4.8580    0.0340 c3        1 MOL      0.273899
    146 C49         6.3930   -4.3450   -1.1470 c         1 MOL      0.629170
    147 O21         6.6090   -5.0640   -2.1210 o         1 MOL     -0.583525
    148 C50         5.6650   -6.3290    0.3360 c3        1 MOL     -0.091249
    149 C51         6.9050   -6.5320    1.2460 c3        1 MOL     -0.023601
    150 C52         7.2540   -7.9690    1.5760 c         1 MOL      0.677775
    151 O22         8.1800   -8.4390    0.9170 o         1 MOL     -0.708604
    152 O23         6.6630   -8.3890    2.5920 o         1 MOL     -0.708604
    153 H65         3.7160   -5.0660   -0.9110 hn        1 MOL      0.250369
    154 H66         5.9390   -4.2670    0.8500 h1        1 MOL      0.016238
    155 H67         5.7270   -6.9490   -0.5440 hc        1 MOL      0.012871
    156 H68         4.7570   -6.5900    0.8780 hc        1 MOL      0.012871
    157 H69         6.7500   -6.0040    2.1760 hc        1 MOL     -0.006842
    158 H70         7.7550   -6.0590    0.7520 hc        1 MOL     -0.006842
    159 N14         6.9720   -3.1740   -1.1390 n         1 MOL     -0.555005
    160 C53         6.7340   -2.0290   -0.1950 c3        1 MOL      0.015928
    161 C54         7.2040   -2.2670    1.2770 c         1 MOL      0.409772
    162 O24         8.3530   -2.7910    1.5040 o         1 MOL     -0.529907
    163 C55         7.4970   -0.8480   -0.8470 c3        1 MOL     -0.028276
    164 C56         7.0750    0.4510   -0.1530 c3        1 MOL      0.051428
    165 C57         7.7340    1.6390   -0.7690 c         1 MOL      0.472020
    166 O25         7.0730    2.6220   -1.2050 o         1 MOL     -0.636209
    167 O26         8.9430    1.6070   -0.8860 o         1 MOL     -0.636209
    168 H71         7.7800   -3.0900   -1.7340 hn        1 MOL      0.306949
    169 H72         5.6680   -1.8030   -0.1210 h1        1 MOL     -0.001470
    170 H73         7.1790   -0.7790   -1.8820 hc        1 MOL      0.046310
    171 H74         8.5720   -1.0020   -0.7450 hc        1 MOL      0.046310
    172 H75         7.3770    0.5520    0.8840 hc        1 MOL     -0.021116
    173 H76         5.9840    0.5790   -0.1370 hc        1 MOL     -0.021116
    174 N15         6.4220   -1.7940    2.2780 n         1 MOL     -0.137969
    175 C58         6.6810   -1.9560    3.6970 c3        1 MOL     -0.215173
    176 H77         5.9550   -2.6510    4.1210 h1        1 MOL      0.085631
    177 H78         7.6860   -2.3510    3.8410 h1        1 MOL      0.085631
    178 H79         6.5940   -0.9910    4.1950 h1        1 MOL      0.085631
    179 H80         5.5670   -1.3290    2.0290 hn        1 MOL      0.223355
    180 Ca1         6.4510    5.1380   -0.6450 Ca        1 MOL      1.708327
    181 O27         6.1180    3.7030    1.4350 oh        1 MOL     -0.822275
    182 H81         5.5970    2.9710    1.7610 ho        1 MOL      0.386394
    183 H82         6.9100    3.6900    1.9740 ho        1 MOL      0.386394
    184 O28         8.6400    5.8510    1.1160 oh        1 MOL     -0.822275
    185 H83         9.4380    6.3640    1.0570 ho        1 MOL      0.386394
    186 H84         8.6440    5.4920    1.9990 ho        1 MOL      0.386394
    187 O29         6.2030    4.9080   -3.3040 oh        1 MOL     -0.822275
    188 H85         5.8120    4.1380   -3.7070 ho        1 MOL      0.386394
    189 H86         6.1700    5.5810   -3.9830 ho        1 MOL      0.386394
    190 O30         6.9800    7.7570   -0.7370 oh        1 MOL     -0.822275
    191 H87         7.1260    8.3220   -1.5000 ho        1 MOL      0.386394
    192 H88         7.5140    8.1450   -0.0410 ho        1 MOL      0.386394
    193 O31         8.9390    5.4440   -1.8580 oh        1 MOL     -0.822275
    194 H89         9.4010    5.6090   -2.6780 ho        1 MOL      0.386394
    195 H90         9.5660    5.7020   -1.1790 ho        1 MOL      0.386394
@<TRIPOS>BOND
     1    1    2 1   
     2    1    4 1   
     3    1    5 1   
     4    1    6 1   
     5    2    3 2   
     6    2    7 1   
     7    7    8 1   
     8    7   15 1   
     9    8    9 1   
    10    8   11 1   
    11    8   16 1   
    12    9   10 2   
    13    9   19 1   
    14   11   12 1   
    15   11   17 1   
    16   11   18 1   
    17   12   13 1   
    18   12   14 1   
    19   19   20 1   
    20   19   27 1   
    21   20   21 1   
    22   20   23 1   
    23   20   28 1   
    24   21   22 2   
    25   21   38 1   
    26   23   24 1   
    27   23   25 1   
    28   23   29 1   
    29   24   26 1   
    30   24   30 1   
    31   24   31 1   
    32   25   32 1   
    33   25   33 1   
    34   25   34 1   
    35   26   35 1   
    36   26   36 1   
    37   26   37 1   
    38   38   39 1   
    39   38   46 1   
    40   39   40 1   
    41   39   42 1   
    42   39   47 1   
    43   40   41 2   
    44   40   50 1   
    45   42   43 1   
    46   42   48 1   
    47   42   49 1   
    48   43   44 1   
    49   43   45 1   
    50   50   51 1   
    51   50   54 1   
    52   51   52 1   
    53   51   55 1   
    54   51   56 1   
    55   52   53 2   
    56   52   57 1   
    57   57   58 1   
    58   57   65 1   
    59   58   59 1   
    60   58   61 1   
    61   58   66 1   
    62   59   60 2   
    63   59   69 1   
    64   61   62 1   
    65   61   67 1   
    66   61   68 1   
    67   62   63 1   
    68   62   64 1   
    69   69   70 1   
    70   69   73 1   
    71   70   71 1   
    72   70   74 1   
    73   70   75 1   
    74   71   72 2   
    75   71   76 1   
    76   76   77 1   
    77   76   85 1   
    78   77   78 1   
    79   77   80 1   
    80   77   86 1   
    81   78   79 2   
    82   78   93 1   
    83   80   81 1   
    84   80   87 1   
    85   80   88 1   
    86   81   82 1   
    87   81   89 1   
    88   81   90 1   
    89   82   83 1   
    90   82   84 2   
    91   83   91 1   
    92   83   92 1   
    93   93   94 1   
    94   93  100 1   
    95   94   95 1   
    96   94   97 1   
    97   94  101 1   
    98   95   96 2   
    99   95  109 1   
   100   97   98 1   
   101   97   99 1   
   102   97  102 1   
   103   98  103 1   
   104   98  104 1   
   105   98  105 1   
   106   99  106 1   
   107   99  107 1   
   108   99  108 1   
   109  109  110 1   
   110  109  117 1   
   111  110  111 1   
   112  110  113 1   
   113  110  118 1   
   114  111  112 2   
   115  111  123 1   
   116  113  114 1   
   117  113  119 1   
   118  113  120 1   
   119  114  115 1   
   120  114  116 2   
   121  115  121 1   
   122  115  122 1   
   123  123  124 1   
   124  123  135 1   
   125  124  125 1   
   126  124  127 1   
   127  124  136 1   
   128  125  126 2   
   129  125  144 1   
   130  127  128 1   
   131  127  137 1   
   132  127  138 1   
   133  128  129 ar  
   134  128  130 ar  
   135  129  131 ar  
   136  129  139 1   
   137  130  132 ar  
   138  130  140 1   
   139  131  133 ar  
   140  131  141 1   
   141  132  133 ar  
   142  132  142 1   
   143  133  134 1   
   144  134  143 1   
   145  144  145 1   
   146  144  153 1   
   147  145  146 1   
   148  145  148 1   
   149  145  154 1   
   150  146  147 2   
   151  146  159 1   
   152  148  149 1   
   153  148  155 1   
   154  148  156 1   
   155  149  150 1   
   156  149  157 1   
   157  149  158 1   
   158  150  151 1   
   159  150  152 1   
   160  159  160 1   
   161  159  168 1   
   162  160  161 1   
   163  160  163 1   
   164  160  169 1   
   165  161  162 2   
   166  161  174 1   
   167  163  164 1   
   168  163  170 1   
   169  163  171 1   
   170  164  165 1   
   171  164  172 1   
   172  164  173 1   
   173  165  166 1   
   174  165  167 1   
   175  174  175 1   
   176  174  179 1   
   177  175  176 1   
   178  175  177 1   
   179  175  178 1   
   180  181  182 1   
   181  181  183 1   
   182  184  185 1   
   183  184  186 1   
   184  187  188 1   
   185  187  189 1   
   186  190  191 1   
   187  190  192 1   
   188  193  194 1   
   189  193  195 1   
@<TRIPOS>SUBSTRUCTURE
     1 MOL         1 TEMP              0 ****  ****    0 ROOT
