@<TRIPOS>MOLECULE
MOL
  192   187     1     0     0
SMALL
resp


@<TRIPOS>ATOM
      1 C1         -3.8240   -1.6750    2.1560 c3        1 MOL     -0.161490
      2 C2         -2.9440   -2.5390    1.1930 c         1 MOL      0.510711
      3 O1         -2.0300   -1.9980    0.5880 o         1 MOL     -0.431952
      4 H1         -3.6510   -0.6180    1.9550 hc        1 MOL      0.030696
      5 H2         -4.8760   -1.9070    1.9940 hc        1 MOL      0.030696
      6 H3         -3.5570   -1.8960    3.1890 hc        1 MOL      0.030696
      7 N1         -3.1990   -3.8340    1.0610 n         1 MOL     -0.457696
      8 C3         -2.4940   -4.8440    0.2540 c3        1 MOL      0.084449
      9 C4         -1.0070   -4.7070    0.4390 c         1 MOL      0.767863
     10 O2         -0.3060   -4.5950   -0.5200 o         1 MOL     -0.511368
     11 C5         -3.0360   -4.8260   -1.2020 c3        1 MOL     -0.489184
     12 C6         -4.5620   -4.5590   -1.2830 c         1 MOL      1.136604
     13 O3         -5.3350   -5.5510   -1.0360 o         1 MOL     -0.896905
     14 O4         -4.9930   -3.4620   -1.6070 o         1 MOL     -0.896905
     15 H4         -3.9880   -4.1990    1.5760 hn        1 MOL      0.216352
     16 H5         -2.7460   -5.8520    0.5840 h1        1 MOL      0.065006
     17 H6         -2.8920   -5.7490   -1.7630 hc        1 MOL      0.106725
     18 H7         -2.6120   -4.0230   -1.7990 hc        1 MOL      0.106725
     19 N2         -0.5580   -4.5930    1.6750 n         1 MOL     -0.703034
     20 C7          0.8230   -4.3790    2.1260 c3        1 MOL     -0.055692
     21 C8          1.7930   -5.3720    1.4840 c         1 MOL      0.298970
     22 O5          1.5050   -6.5480    1.2310 o         1 MOL     -0.520819
     23 C9          1.0270   -4.2190    3.6150 c3        1 MOL      0.083633
     24 C10         0.8330   -5.5850    4.3870 c3        1 MOL      0.102971
     25 C11        -0.0640   -3.2520    4.1080 c3        1 MOL     -0.288958
     26 C12         1.0790   -5.5140    5.8070 c3        1 MOL     -0.301801
     27 H8         -1.2160   -4.9220    2.3690 hn        1 MOL      0.300712
     28 H9          1.0830   -3.3780    1.7760 h1        1 MOL      0.185496
     29 H10         2.0470   -3.8580    3.7290 hc        1 MOL      0.088914
     30 H11         1.5190   -6.3510    4.0250 hc        1 MOL      0.028699
     31 H12        -0.1980   -5.9310    4.3360 hc        1 MOL      0.028699
     32 H13        -1.0520   -3.7080    4.1210 hc        1 MOL      0.068516
     33 H14         0.0990   -2.8240    5.1020 hc        1 MOL      0.068516
     34 H15        -0.2940   -2.4000    3.4620 hc        1 MOL      0.068516
     35 H16         0.6400   -6.3930    6.2750 hc        1 MOL      0.056882
     36 H17         2.1270   -5.7170    6.0110 hc        1 MOL      0.056882
     37 H18         0.6960   -4.6060    6.2760 hc        1 MOL      0.056882
     38 N3          3.0440   -4.9790    1.1290 n         1 MOL     -0.243004
     39 C13         3.6820   -3.6760    1.2240 c3        1 MOL      0.116505
     40 C14         3.9180   -3.1030   -0.1920 c         1 MOL      0.366339
     41 O6          4.2660   -1.9080   -0.4160 o         1 MOL     -0.506133
     42 C15         4.9710   -3.7250    2.0610 c3        1 MOL     -0.261018
     43 C16         5.9840   -4.8610    1.6850 c         1 MOL      0.742130
     44 O7          5.7890   -5.6490    0.7640 o         1 MOL     -0.683920
     45 O8          7.0360   -4.9910    2.3550 o         1 MOL     -0.683920
     46 H19         3.6330   -5.7830    1.0090 hn        1 MOL      0.248673
     47 H20         3.0560   -2.9520    1.7380 h1        1 MOL      0.013319
     48 H21         4.8210   -3.8850    3.1280 hc        1 MOL      0.061899
     49 H22         5.5120   -2.8010    1.8820 hc        1 MOL      0.061899
     50 N4          3.9360   -3.8680   -1.3000 n         1 MOL     -0.256773
     51 C17         4.2530   -3.2960   -2.6350 c3        1 MOL     -0.082357
     52 C18         5.7040   -2.9300   -2.8020 c         1 MOL      0.561445
     53 O9          6.4550   -3.7280   -2.3430 o         1 MOL     -0.527647
     54 H23         3.6070   -4.8210   -1.1710 hn        1 MOL      0.253318
     55 H24         3.6030   -2.4540   -2.8940 h1        1 MOL      0.062121
     56 H25         3.9230   -4.0130   -3.3930 h1        1 MOL      0.062121
     57 N5          6.0470   -1.8230   -3.3660 n         1 MOL     -0.631446
     58 C19         7.4510   -1.3830   -3.3240 c3        1 MOL      0.317216
     59 C20         8.0120   -1.0200   -1.9230 c         1 MOL      0.292792
     60 O10         9.1330   -0.6350   -1.7620 o         1 MOL     -0.500414
     61 C21         7.4120   -0.0750   -4.1830 c3        1 MOL     -0.444839
     62 C22         6.3240    0.9660   -3.8350 c         1 MOL      0.728768
     63 O11         5.9810    1.8060   -4.7310 o         1 MOL     -0.686393
     64 O12         5.7540    0.8790   -2.7180 o         1 MOL     -0.686393
     65 H26         5.3710   -1.1850   -3.7620 hn        1 MOL      0.385432
     66 H27         8.1630   -2.1310   -3.6870 h1        1 MOL      0.038848
     67 H28         7.3570   -0.4170   -5.2210 hc        1 MOL      0.076813
     68 H29         8.3290    0.5120   -4.1300 hc        1 MOL      0.076813
     69 N6          7.1940   -1.1130   -0.8290 n         1 MOL     -0.081322
     70 C23         7.4170   -0.6520    0.5090 c3        1 MOL     -0.309428
     71 C24         7.5040    0.8910    0.6270 c         1 MOL      0.551747
     72 O13         8.0180    1.4470    1.5500 o         1 MOL     -0.588762
     73 H30         6.2730   -1.5220   -0.9490 hn        1 MOL      0.245603
     74 H31         8.3650   -0.9570    0.9440 h1        1 MOL      0.135958
     75 H32         6.6810   -0.9790    1.2480 h1        1 MOL      0.135958
     76 N7          6.9250    1.6030   -0.3590 n         1 MOL     -0.170817
     77 C25         6.7700    3.0520   -0.5050 c3        1 MOL      0.046791
     78 C26         6.1920    3.7580    0.7290 c         1 MOL      0.427831
     79 O14         6.5400    4.9250    0.9330 o         1 MOL     -0.540191
     80 C27         8.0690    3.6500   -1.0110 c3        1 MOL      0.135945
     81 C28         8.3280    3.2180   -2.5150 c3        1 MOL     -0.161902
     82 C29         9.3450    4.0120   -3.2530 c         1 MOL      0.584986
     83 N8          9.2500    3.9660   -4.5170 n         1 MOL     -0.647654
     84 O15        10.0540    4.8360   -2.6960 o         1 MOL     -0.598892
     85 H33         6.4870    1.0430   -1.0790 hn        1 MOL      0.150236
     86 H34         5.9850    3.1990   -1.2580 h1        1 MOL      0.066475
     87 H35         8.9000    3.3470   -0.3650 hc        1 MOL     -0.005893
     88 H36         8.1740    4.7200   -0.8720 hc        1 MOL     -0.005893
     89 H37         7.3870    3.3540   -3.0520 hc        1 MOL      0.055061
     90 H38         8.6320    2.1710   -2.4940 hc        1 MOL      0.055061
     91 H39         8.5900    3.3170   -4.9360 hn        1 MOL      0.301205
     92 H40        10.0060    4.3270   -5.0700 hn        1 MOL      0.301205
     93 N9          5.3230    3.2090    1.5380 n         1 MOL     -0.222327
     94 C30         4.7200    3.7680    2.8130 c3        1 MOL     -0.285049
     95 C31         3.2190    3.5190    2.7960 c         1 MOL      0.762826
     96 O16         2.4700    3.8620    3.6600 o         1 MOL     -0.613592
     97 C32         5.3430    3.3480    4.1250 c3        1 MOL      0.339102
     98 C33         5.2710    1.8480    4.3390 c3        1 MOL     -0.345103
     99 C34         6.8840    3.6360    4.1430 c3        1 MOL     -0.345103
    100 H41         5.0750    2.2780    1.2380 hn        1 MOL      0.150866
    101 H42         4.8880    4.8430    2.7640 h1        1 MOL      0.132160
    102 H43         4.9460    3.8510    5.0060 hc        1 MOL     -0.033628
    103 H44         5.7250    1.3150    3.5060 hc        1 MOL      0.083790
    104 H45         5.8640    1.5590    5.2130 hc        1 MOL      0.083790
    105 H46         4.2130    1.5950    4.4710 hc        1 MOL      0.083790
    106 H47         7.0180    4.7090    4.1950 hc        1 MOL      0.083790
    107 H48         7.2770    3.2830    5.0860 hc        1 MOL      0.083790
    108 H49         7.4440    3.1890    3.3170 hc        1 MOL      0.083790
    109 N10         2.6720    2.8310    1.7270 n         1 MOL     -0.781591
    110 C35         1.2850    2.4350    1.6790 c3        1 MOL      0.558453
    111 C36         0.6380    2.9740    0.3950 c         1 MOL      0.520613
    112 O17         1.3300    3.4100   -0.4970 o         1 MOL     -0.514766
    113 C37         1.2030    0.8870    1.7320 c3        1 MOL     -0.188945
    114 C38         1.6660    0.2450    3.0410 c         1 MOL      0.646536
    115 N11         0.9310    0.5230    4.1050 n         1 MOL     -0.759404
    116 O18         2.6690   -0.4480    3.1330 o         1 MOL     -0.571831
    117 H50         3.3570    2.3420    1.1590 hn        1 MOL      0.344274
    118 H51         0.7090    2.8020    2.5220 h1        1 MOL     -0.066052
    119 H52         1.7940    0.4990    0.9090 hc        1 MOL      0.065806
    120 H53         0.1430    0.6090    1.7330 hc        1 MOL      0.065806
    121 H54         0.0970    1.0870    4.0910 hn        1 MOL      0.350381
    122 H55         1.4240    0.2990    4.9620 hn        1 MOL      0.350381
    123 N12        -0.7230    3.0050    0.3620 n         1 MOL     -0.579566
    124 C39        -1.4990    3.6740   -0.7020 c3        1 MOL      0.177448
    125 C40        -2.9510    3.7540   -0.2420 c         1 MOL      0.498060
    126 O19        -3.4320    2.9090    0.5790 o         1 MOL     -0.514993
    127 C41        -1.4210    2.8320   -2.0230 c3        1 MOL     -0.304600
    128 C42        -2.3800    1.6920   -2.3210 ca        1 MOL      0.233777
    129 C43        -2.7100    0.7250   -1.3540 ca        1 MOL     -0.220554
    130 C44        -2.7670    1.5320   -3.6470 ca        1 MOL     -0.220554
    131 C45        -3.4030   -0.4280   -1.7710 ca        1 MOL     -0.265989
    132 C46        -3.4530    0.3830   -4.0980 ca        1 MOL     -0.265989
    133 C47        -3.7280   -0.5910   -3.1160 ca        1 MOL      0.380602
    134 O20        -4.3610   -1.7460   -3.5010 oh        1 MOL     -0.688492
    135 H56        -1.2680    2.7170    1.1650 hn        1 MOL      0.262983
    136 H57        -1.0980    4.6680   -0.8810 h1        1 MOL      0.064679
    137 H58        -0.4720    2.3270   -2.1740 hc        1 MOL      0.109749
    138 H59        -1.6230    3.5990   -2.7730 hc        1 MOL      0.109749
    139 H60        -2.4970    0.8450   -0.3070 ha        1 MOL      0.115745
    140 H61        -2.3930    2.2560   -4.3620 ha        1 MOL      0.115745
    141 H62        -3.8590   -1.0900   -1.0530 ha        1 MOL      0.151193
    142 H63        -3.7830    0.2030   -5.1060 ha        1 MOL      0.151193
    143 H64        -4.3540   -2.4430   -2.8470 ho        1 MOL      0.577434
    144 N13        -3.6840    4.6940   -0.7960 n         1 MOL     -0.592041
    145 C48        -5.0730    5.0540   -0.3550 c3        1 MOL      0.337612
    146 C49        -6.0960    4.3840   -1.2230 c         1 MOL      0.537645
    147 O21        -6.0820    4.5630   -2.4540 o         1 MOL     -0.575547
    148 C50        -5.2690    6.5770   -0.2680 c3        1 MOL     -0.137490
    149 C51        -6.5230    6.9110    0.5410 c3        1 MOL     -0.070921
    150 C52        -6.8470    8.3840    0.5020 c         1 MOL      0.658850
    151 O22        -8.0270    8.6640    0.1540 o         1 MOL     -0.700444
    152 O23        -5.9950    9.2640    0.7780 o         1 MOL     -0.700444
    153 H65        -3.2530    5.2550   -1.5110 hn        1 MOL      0.313939
    154 H66        -5.1950    4.6490    0.6520 h1        1 MOL     -0.040043
    155 H67        -5.3400    7.0290   -1.2500 hc        1 MOL      0.035101
    156 H68        -4.4300    7.0650    0.2420 hc        1 MOL      0.035101
    157 H69        -6.3710    6.5580    1.5660 hc        1 MOL      0.028130
    158 H70        -7.3590    6.3860    0.0790 hc        1 MOL      0.028130
    159 N14        -6.9740    3.4700   -0.7610 n         1 MOL     -0.525338
    160 C53        -7.0160    2.8190    0.5810 c3        1 MOL      0.074692
    161 C54        -7.8230    3.6310    1.6120 c         1 MOL      0.444741
    162 O24        -8.7630    4.3090    1.2290 o         1 MOL     -0.497893
    163 C55        -7.5350    1.4190    0.3420 c3        1 MOL      0.130758
    164 C56        -6.5630    0.5540   -0.4410 c3        1 MOL     -0.177962
    165 C57        -7.0820   -0.8760   -0.7660 c         1 MOL      0.573880
    166 O25        -7.7650   -1.1500   -1.7650 o         1 MOL     -0.676644
    167 O26        -6.7320   -1.8160   -0.0060 o         1 MOL     -0.676644
    168 H71        -7.5180    3.0070   -1.4880 hn        1 MOL      0.327470
    169 H72        -6.0030    2.6810    0.9610 h1        1 MOL      0.028897
    170 H73        -8.4970    1.3760   -0.1640 hc        1 MOL     -0.042913
    171 H74        -7.6070    0.9840    1.3360 hc        1 MOL     -0.042913
    172 H75        -5.5320    0.4710   -0.0970 hc        1 MOL      0.099359
    173 H76        -6.4460    1.0080   -1.4240 hc        1 MOL      0.099359
    174 N15        -7.4430    3.5660    2.8950 n         1 MOL     -0.256813
    175 C58        -8.0330    4.2430    3.9960 c3        1 MOL     -0.264810
    176 H77        -8.7360    4.9900    3.6280 h1        1 MOL      0.103207
    177 H78        -8.5610    3.5260    4.6240 h1        1 MOL      0.103207
    178 H79        -7.2550    4.7350    4.5800 h1        1 MOL      0.103207
    179 H80        -6.6660    3.0150    3.2240 hn        1 MOL      0.248465
    180 Ca1        -7.6090   -3.9880   -1.1800 Ca        1 MOL      1.602945
    181 O27        -9.6260   -3.1800    0.2300 oh        1 MOL     -0.728050
    182 H81        -9.8400   -3.2970    1.1590 ho        1 MOL      0.350710
    183 H82       -10.3850   -2.7290   -0.1370 ho        1 MOL      0.350710
    184 O28        -9.8150   -3.8440   -2.8230 oh        1 MOL     -0.728050
    185 H83       -10.5020   -4.4890   -2.6620 ho        1 MOL      0.350710
    186 H84       -10.2580   -3.1210   -3.2740 ho        1 MOL      0.350710
    187 O29        -6.8540   -5.1760   -3.4350 oh        1 MOL     -0.728050
    188 H85        -7.1430   -5.8120   -4.0860 ho        1 MOL      0.350710
    189 H86        -5.9720   -4.9240   -3.7170 ho        1 MOL      0.350710
    190 O30        -9.1500   -6.1090   -1.1140 oh        1 MOL     -0.728050
    191 H87        -9.0200   -7.0410   -1.3180 ho        1 MOL      0.350710
    192 H88        -9.6990   -6.1120   -0.3360 ho        1 MOL      0.350710
@<TRIPOS>BOND
     1    1    2 1   
     2    1    4 1   
     3    1    5 1   
     4    1    6 1   
     5    2    3 2   
     6    2    7 1   
     7    7    8 1   
     8    7   15 1   
     9    8    9 1   
    10    8   11 1   
    11    8   16 1   
    12    9   10 2   
    13    9   19 1   
    14   11   12 1   
    15   11   17 1   
    16   11   18 1   
    17   12   13 1   
    18   12   14 1   
    19   19   20 1   
    20   19   27 1   
    21   20   21 1   
    22   20   23 1   
    23   20   28 1   
    24   21   22 2   
    25   21   38 1   
    26   23   24 1   
    27   23   25 1   
    28   23   29 1   
    29   24   26 1   
    30   24   30 1   
    31   24   31 1   
    32   25   32 1   
    33   25   33 1   
    34   25   34 1   
    35   26   35 1   
    36   26   36 1   
    37   26   37 1   
    38   38   39 1   
    39   38   46 1   
    40   39   40 1   
    41   39   42 1   
    42   39   47 1   
    43   40   41 2   
    44   40   50 1   
    45   42   43 1   
    46   42   48 1   
    47   42   49 1   
    48   43   44 1   
    49   43   45 1   
    50   50   51 1   
    51   50   54 1   
    52   51   52 1   
    53   51   55 1   
    54   51   56 1   
    55   52   53 2   
    56   52   57 1   
    57   57   58 1   
    58   57   65 1   
    59   58   59 1   
    60   58   61 1   
    61   58   66 1   
    62   59   60 2   
    63   59   69 1   
    64   61   62 1   
    65   61   67 1   
    66   61   68 1   
    67   62   63 1   
    68   62   64 1   
    69   69   70 1   
    70   69   73 1   
    71   70   71 1   
    72   70   74 1   
    73   70   75 1   
    74   71   72 2   
    75   71   76 1   
    76   76   77 1   
    77   76   85 1   
    78   77   78 1   
    79   77   80 1   
    80   77   86 1   
    81   78   79 2   
    82   78   93 1   
    83   80   81 1   
    84   80   87 1   
    85   80   88 1   
    86   81   82 1   
    87   81   89 1   
    88   81   90 1   
    89   82   83 1   
    90   82   84 2   
    91   83   91 1   
    92   83   92 1   
    93   93   94 1   
    94   93  100 1   
    95   94   95 1   
    96   94   97 1   
    97   94  101 1   
    98   95   96 2   
    99   95  109 1   
   100   97   98 1   
   101   97   99 1   
   102   97  102 1   
   103   98  103 1   
   104   98  104 1   
   105   98  105 1   
   106   99  106 1   
   107   99  107 1   
   108   99  108 1   
   109  109  110 1   
   110  109  117 1   
   111  110  111 1   
   112  110  113 1   
   113  110  118 1   
   114  111  112 2   
   115  111  123 1   
   116  113  114 1   
   117  113  119 1   
   118  113  120 1   
   119  114  115 1   
   120  114  116 2   
   121  115  121 1   
   122  115  122 1   
   123  123  124 1   
   124  123  135 1   
   125  124  125 1   
   126  124  127 1   
   127  124  136 1   
   128  125  126 2   
   129  125  144 1   
   130  127  128 1   
   131  127  137 1   
   132  127  138 1   
   133  128  129 ar  
   134  128  130 ar  
   135  129  131 ar  
   136  129  139 1   
   137  130  132 ar  
   138  130  140 1   
   139  131  133 ar  
   140  131  141 1   
   141  132  133 ar  
   142  132  142 1   
   143  133  134 1   
   144  134  143 1   
   145  144  145 1   
   146  144  153 1   
   147  145  146 1   
   148  145  148 1   
   149  145  154 1   
   150  146  147 2   
   151  146  159 1   
   152  148  149 1   
   153  148  155 1   
   154  148  156 1   
   155  149  150 1   
   156  149  157 1   
   157  149  158 1   
   158  150  151 1   
   159  150  152 1   
   160  159  160 1   
   161  159  168 1   
   162  160  161 1   
   163  160  163 1   
   164  160  169 1   
   165  161  162 2   
   166  161  174 1   
   167  163  164 1   
   168  163  170 1   
   169  163  171 1   
   170  164  165 1   
   171  164  172 1   
   172  164  173 1   
   173  165  166 1   
   174  165  167 1   
   175  174  175 1   
   176  174  179 1   
   177  175  176 1   
   178  175  177 1   
   179  175  178 1   
   180  181  182 1   
   181  181  183 1   
   182  184  185 1   
   183  184  186 1   
   184  187  188 1   
   185  187  189 1   
   186  190  191 1   
   187  190  192 1   
@<TRIPOS>SUBSTRUCTURE
     1 MOL         1 TEMP              0 ****  ****    0 ROOT
