@<TRIPOS>MOLECULE
MOL
  189   185     1     0     0
SMALL
resp


@<TRIPOS>ATOM
      1 C1          4.4780    3.5990   -4.0480 c3        1 MOL     -0.486320
      2 C2          5.1690    2.8290   -2.9170 c         1 MOL      0.782508
      3 O1          4.5270    2.5570   -1.9200 o         1 MOL     -0.576476
      4 H1          5.2290    3.9710   -4.7450 hc        1 MOL      0.123579
      5 H2          3.7920    2.9350   -4.5740 hc        1 MOL      0.123579
      6 H3          3.9230    4.4380   -3.6290 hc        1 MOL      0.123579
      7 N1          6.4980    2.5370   -3.0130 n         1 MOL     -0.731105
      8 C3          7.2110    1.4840   -2.2880 c3        1 MOL      0.420880
      9 C4          6.3030    0.3200   -1.9140 c         1 MOL      0.088617
     10 O2          5.9540    0.1380   -0.7520 o         1 MOL     -0.207024
     11 C5          8.1420    1.9790   -1.1780 c3        1 MOL     -0.300171
     12 C6          7.5440    3.0890   -0.2600 c         1 MOL      0.793492
     13 O3          6.7680    2.7420    0.6580 o         1 MOL     -0.734431
     14 O4          7.8800    4.2810   -0.4460 o         1 MOL     -0.734431
     15 H4          6.8960    2.9890   -3.8180 hn        1 MOL      0.335052
     16 H5          7.9140    1.0870   -3.0140 h1        1 MOL     -0.005502
     17 H6          9.0710    2.2510   -1.6690 hc        1 MOL      0.052412
     18 H7          8.4310    1.1700   -0.5030 hc        1 MOL      0.052412
     19 N2          5.8650   -0.4720   -2.8950 n         1 MOL     -0.240753
     20 C7          5.0980   -1.7170   -2.8340 c3        1 MOL      0.079503
     21 C8          5.8550   -2.7550   -1.9780 c         1 MOL      0.287975
     22 O5          6.4380   -3.7890   -2.4830 o         1 MOL     -0.557782
     23 C9          3.6380   -1.3750   -2.4910 c3        1 MOL      0.327649
     24 C10         2.6250   -2.5600   -2.6050 c3        1 MOL     -0.169793
     25 C11         3.0860   -0.2380   -3.4010 c3        1 MOL     -0.307901
     26 C12         2.6940   -3.2770   -3.9700 c3        1 MOL     -0.130496
     27 H8          6.0740   -0.0860   -3.8050 hn        1 MOL      0.198586
     28 H9          5.1040   -2.1390   -3.8360 h1        1 MOL      0.032582
     29 H10         3.6560   -0.8570   -1.5340 hc        1 MOL     -0.203701
     30 H11         1.6140   -2.1700   -2.4880 hc        1 MOL      0.089595
     31 H12         2.7400   -3.3810   -1.8920 hc        1 MOL      0.089595
     32 H13         2.0330   -0.0460   -3.2410 hc        1 MOL      0.062234
     33 H14         3.5460    0.7430   -3.2720 hc        1 MOL      0.062234
     34 H15         3.3000   -0.5780   -4.4200 hc        1 MOL      0.062234
     35 H16         2.5520   -2.5390   -4.7580 hc        1 MOL      0.021913
     36 H17         3.6640   -3.7770   -4.0440 hc        1 MOL      0.021913
     37 H18         1.8770   -3.9920   -4.0870 hc        1 MOL      0.021913
     38 N3          5.9430   -2.6320   -0.6450 n         1 MOL      0.122677
     39 C13         6.6640   -3.5000    0.2570 c3        1 MOL      0.077898
     40 C14         5.8670   -4.7600    0.7220 c         1 MOL      0.626401
     41 O6          6.4170   -5.8260    0.6200 o         1 MOL     -0.599391
     42 C15         7.1640   -2.7850    1.4800 c3        1 MOL     -0.344001
     43 C16         8.3070   -1.8310    1.2150 c         1 MOL      0.743001
     44 O7          8.3660   -0.6190    1.5790 o         1 MOL     -0.712789
     45 O8          9.3100   -2.3040    0.6320 o         1 MOL     -0.712789
     46 H19         5.3580   -1.9130   -0.2510 hn        1 MOL     -0.145078
     47 H20         7.5280   -3.9430   -0.2470 h1        1 MOL      0.052581
     48 H21         7.4670   -3.5500    2.1830 hc        1 MOL      0.108354
     49 H22         6.3910   -2.1510    1.9030 hc        1 MOL      0.108354
     50 N4          4.6460   -4.7290    1.1940 n         1 MOL     -0.666543
     51 C17         3.7590   -3.5900    1.5850 c3        1 MOL      0.284070
     52 C18         4.0720   -3.1130    2.9920 c         1 MOL      0.403664
     53 O9          5.0280   -3.5570    3.6130 o         1 MOL     -0.529000
     54 H23         4.3180   -5.6530    1.4510 hn        1 MOL      0.312608
     55 H24         2.7760   -4.0480    1.6500 h1        1 MOL      0.027362
     56 H25         3.8080   -2.8260    0.8090 h1        1 MOL      0.027362
     57 N5          3.3870   -2.0910    3.4550 n         1 MOL     -0.394920
     58 C19         2.0700   -1.5640    3.0330 c3        1 MOL      0.048071
     59 C20         2.1110   -1.0690    1.5780 c         1 MOL     -0.023723
     60 O10         3.1210   -0.7060    1.0520 o         1 MOL     -0.192717
     61 C21         1.5990   -0.3870    3.9780 c3        1 MOL     -0.202096
     62 C22         2.6220    0.7310    4.0630 c         1 MOL      0.705981
     63 O11         3.1530    0.8260    5.1980 o         1 MOL     -0.668890
     64 O12         2.9630    1.4640    3.0590 o         1 MOL     -0.668890
     65 H26         3.6000   -1.7760    4.3990 hn        1 MOL      0.311695
     66 H27         1.3550   -2.3840    3.0520 h1        1 MOL      0.054312
     67 H28         1.5750   -0.8640    4.9560 hc        1 MOL      0.067620
     68 H29         0.6050   -0.0570    3.6830 hc        1 MOL      0.067620
     69 N6          0.9930   -0.8670    0.9090 n         1 MOL     -0.134342
     70 C23        -0.3630   -1.3450    1.2100 c3        1 MOL      0.068584
     71 C24        -0.6400   -2.7830    0.7790 c         1 MOL      0.464961
     72 O13         0.3140   -3.4940    0.3050 o         1 MOL     -0.535354
     73 H30         0.9640   -0.1780    0.1680 hn        1 MOL      0.194630
     74 H31        -1.0620   -0.6950    0.6870 h1        1 MOL      0.022712
     75 H32        -0.4820   -1.2790    2.2860 h1        1 MOL      0.022712
     76 N7         -1.9040   -3.1990    0.8810 n         1 MOL     -0.276238
     77 C25        -2.4680   -4.4410    0.3700 c3        1 MOL     -0.066017
     78 C26        -3.1620   -4.4130   -0.9550 c         1 MOL      0.608723
     79 O14        -3.2550   -5.4240   -1.5650 o         1 MOL     -0.537482
     80 C27        -3.2460   -5.1990    1.4740 c3        1 MOL     -0.069998
     81 C28        -4.3850   -4.4220    2.1540 c3        1 MOL     -0.112118
     82 C29        -5.6460   -4.1470    1.3280 c         1 MOL      0.493772
     83 N8         -6.5650   -5.0790    1.1880 n         1 MOL     -0.576597
     84 O15        -5.8160   -3.1420    0.6640 o         1 MOL     -0.524953
     85 H33        -2.5190   -2.5220    1.3200 hn        1 MOL      0.200583
     86 H34        -1.5750   -5.0260    0.1200 h1        1 MOL      0.114730
     87 H35        -2.4430   -5.4410    2.1670 hc        1 MOL      0.049999
     88 H36        -3.7070   -6.1190    1.1090 hc        1 MOL      0.049999
     89 H37        -4.0670   -3.4900    2.6490 hc        1 MOL      0.042019
     90 H38        -4.6510   -5.1140    2.9520 hc        1 MOL      0.042019
     91 H39        -6.4590   -5.8740    1.7870 hn        1 MOL      0.300399
     92 H40        -7.3970   -4.8270    0.6750 hn        1 MOL      0.300399
     93 N9         -3.4520   -3.1300   -1.4440 n         1 MOL     -0.347696
     94 C30        -3.7920   -2.9270   -2.8410 c3        1 MOL     -0.067303
     95 C31        -5.1540   -2.2710   -3.0550 c         1 MOL      0.376781
     96 O16        -5.6720   -2.3680   -4.1410 o         1 MOL     -0.551365
     97 C32        -2.7620   -2.0040   -3.5240 c3        1 MOL      0.046968
     98 C33        -1.4180   -2.6980   -3.5150 c3        1 MOL     -0.082187
     99 C34        -2.5610   -0.6440   -2.7770 c3        1 MOL     -0.082187
    100 H41        -3.2210   -2.3650   -0.8380 hn        1 MOL      0.223715
    101 H42        -3.8050   -3.8470   -3.4120 h1        1 MOL      0.134159
    102 H43        -2.8760   -1.8780   -4.5990 hc        1 MOL      0.049219
    103 H44        -0.9320   -2.2830   -4.3880 hc        1 MOL      0.013629
    104 H45        -0.8580   -2.4540   -2.6070 hc        1 MOL      0.013629
    105 H46        -1.5950   -3.7740   -3.5580 hc        1 MOL      0.013629
    106 H47        -1.8810   -0.0360   -3.3640 hc        1 MOL      0.013629
    107 H48        -3.5140   -0.1290   -2.6790 hc        1 MOL      0.013629
    108 H49        -2.1990   -0.7880   -1.7510 hc        1 MOL      0.013629
    109 N10        -5.7550   -1.7120   -1.9870 n         1 MOL     -0.008279
    110 C35        -7.1200   -1.1020   -2.0340 c3        1 MOL     -0.126302
    111 C36        -7.2400    0.4510   -1.5930 c         1 MOL      0.520646
    112 O17        -8.2480    1.0760   -1.8830 o         1 MOL     -0.546439
    113 C37        -8.1040   -1.8290   -1.1610 c3        1 MOL     -0.344176
    114 C38        -8.4310   -3.1520   -1.7390 c         1 MOL      0.600884
    115 N11        -8.7050   -3.3020   -2.9730 n         1 MOL     -0.623481
    116 O18        -8.4520   -4.1370   -1.0330 o         1 MOL     -0.550685
    117 H50        -5.2900   -1.7740   -1.0910 hn        1 MOL      0.194482
    118 H51        -7.4880   -1.0320   -3.0560 h1        1 MOL      0.090713
    119 H52        -8.9950   -1.2080   -1.1680 hc        1 MOL      0.119392
    120 H53        -7.7200   -1.8900   -0.1470 hc        1 MOL      0.119392
    121 H54        -8.5830   -2.5220   -3.6090 hn        1 MOL      0.317483
    122 H55        -9.3370   -4.0410   -3.2260 hn        1 MOL      0.317483
    123 N12        -6.2700    0.9770   -0.9230 n         1 MOL     -0.406670
    124 C39        -6.2550    2.3290   -0.2850 c3        1 MOL      0.165142
    125 C40        -4.8610    2.8560   -0.1230 c         1 MOL      0.465816
    126 O19        -3.8810    2.1100   -0.3070 o         1 MOL     -0.444055
    127 C41        -6.9880    2.2650    1.0680 c3        1 MOL     -0.308370
    128 C42        -6.5410    1.0990    1.9350 ca        1 MOL     -0.010739
    129 C43        -5.5080    1.2960    2.8130 ca        1 MOL     -0.044030
    130 C44        -7.3110   -0.0820    1.9640 ca        1 MOL     -0.044030
    131 C45        -5.1100    0.2100    3.6190 ca        1 MOL     -0.357676
    132 C46        -7.0990   -1.0260    2.9360 ca        1 MOL     -0.357676
    133 C47        -5.9730   -0.9610    3.7490 ca        1 MOL      0.453571
    134 O20        -5.7110   -1.9140    4.6100 oh        1 MOL     -0.593142
    135 H56        -5.4440    0.4070   -0.7860 hn        1 MOL      0.204619
    136 H57        -6.7080    3.0150   -1.0030 h1        1 MOL      0.051487
    137 H58        -8.0570    2.2090    0.8390 hc        1 MOL      0.114309
    138 H59        -6.9350    3.2070    1.6190 hc        1 MOL      0.114309
    139 H60        -4.8630    2.1530    2.6670 ha        1 MOL      0.132450
    140 H61        -8.2030   -0.1470    1.3710 ha        1 MOL      0.132450
    141 H62        -4.1880    0.1940    4.1800 ha        1 MOL      0.163922
    142 H63        -7.7370   -1.8950    2.9800 ha        1 MOL      0.163922
    143 H64        -4.9560   -1.7720    5.1900 ho        1 MOL      0.437041
    144 N13        -4.8260    4.1370    0.2700 n         1 MOL     -0.538118
    145 C48        -3.8080    5.1660    0.6730 c3        1 MOL      0.113457
    146 C49        -2.4750    5.2120   -0.1930 c         1 MOL      0.092821
    147 O21        -1.7540    6.1550   -0.1860 o         1 MOL     -0.423316
    148 C50        -3.3410    4.8720    2.1200 c3        1 MOL      0.013595
    149 C51        -4.4620    5.1620    3.2190 c3        1 MOL     -0.214733
    150 C52        -3.7700    4.8770    4.6000 c         1 MOL      0.741318
    151 O22        -4.4010    5.3000    5.6050 o         1 MOL     -0.736061
    152 O23        -2.6590    4.2570    4.7530 o         1 MOL     -0.736061
    153 H65        -5.7290    4.5960    0.2300 hn        1 MOL      0.277459
    154 H66        -4.2020    6.1820    0.7330 h1        1 MOL      0.081569
    155 H67        -2.5530    5.5960    2.3430 hc        1 MOL      0.077314
    156 H68        -3.0860    3.8140    2.1650 hc        1 MOL      0.077314
    157 H69        -5.3340    4.5100    3.1390 hc        1 MOL      0.012960
    158 H70        -4.8250    6.1910    3.2790 hc        1 MOL      0.012960
    159 N14        -2.1800    4.1890   -1.0170 n         1 MOL     -0.060330
    160 C53        -1.0510    4.2060   -1.9510 c3        1 MOL     -0.001072
    161 C54        -1.3350    4.9080   -3.2960 c         1 MOL      0.430913
    162 O24        -0.4410    5.3800   -3.9590 o         1 MOL     -0.538107
    163 C55        -0.6280    2.7590   -2.2410 c3        1 MOL     -0.148240
    164 C56        -0.1290    1.9680   -0.9910 c3        1 MOL      0.361052
    165 C57         1.0320    2.5660   -0.2320 c         1 MOL      0.381062
    166 O25         2.0380    1.7900   -0.1180 o         1 MOL     -0.537752
    167 O26         0.9620    3.6290    0.3830 o         1 MOL     -0.537752
    168 H71        -2.6950    3.3220   -0.9510 hn        1 MOL      0.179335
    169 H72        -0.2910    4.7930   -1.4360 h1        1 MOL      0.130672
    170 H73         0.1650    2.9320   -2.9670 hc        1 MOL      0.014599
    171 H74        -1.5400    2.2670   -2.5990 hc        1 MOL      0.014599
    172 H75         0.2430    0.9800   -1.2630 hc        1 MOL     -0.103952
    173 H76        -0.9700    1.8910   -0.3020 hc        1 MOL     -0.103952
    174 N15        -2.6050    5.0100   -3.5760 n         1 MOL     -0.177098
    175 C58        -3.2380    5.6950   -4.7630 c3        1 MOL     -0.248305
    176 H77        -2.4600    6.0040   -5.4610 h1        1 MOL      0.100427
    177 H78        -3.9190    5.0050   -5.2610 h1        1 MOL      0.100427
    178 H79        -3.7910    6.5720   -4.4250 h1        1 MOL      0.100427
    179 H80        -3.2550    4.4910   -3.0040 hn        1 MOL      0.167110
    180 Ca1         4.4450    1.6340    0.8110 Ca        1 MOL      1.620511
    181 O27         5.9170    0.2030    2.3650 oh        1 MOL     -0.823887
    182 H81         6.7640   -0.0340    1.9890 ho        1 MOL      0.379812
    183 H82         6.0740    0.2760    3.2980 ho        1 MOL      0.379812
    184 O28         4.8670    3.2060    3.4390 oh        1 MOL     -0.823887
    185 H83         4.0690    2.7170    3.2370 ho        1 MOL      0.379812
    186 H84         5.0540    2.9920    4.3590 ho        1 MOL      0.379812
    187 O29         3.6890    4.2020    0.7160 oh        1 MOL     -0.823887
    188 H85         3.9430    4.8770    0.0770 ho        1 MOL      0.379812
    189 H86         2.7360    4.1660    0.6440 ho        1 MOL      0.379812
@<TRIPOS>BOND
     1    1    2 1   
     2    1    4 1   
     3    1    5 1   
     4    1    6 1   
     5    2    3 2   
     6    2    7 1   
     7    7    8 1   
     8    7   15 1   
     9    8    9 1   
    10    8   11 1   
    11    8   16 1   
    12    9   10 2   
    13    9   19 1   
    14   11   12 1   
    15   11   17 1   
    16   11   18 1   
    17   12   13 1   
    18   12   14 1   
    19   19   20 1   
    20   19   27 1   
    21   20   21 1   
    22   20   23 1   
    23   20   28 1   
    24   21   22 2   
    25   21   38 1   
    26   23   24 1   
    27   23   25 1   
    28   23   29 1   
    29   24   26 1   
    30   24   30 1   
    31   24   31 1   
    32   25   32 1   
    33   25   33 1   
    34   25   34 1   
    35   26   35 1   
    36   26   36 1   
    37   26   37 1   
    38   38   39 1   
    39   38   46 1   
    40   39   40 1   
    41   39   42 1   
    42   39   47 1   
    43   40   41 2   
    44   40   50 1   
    45   42   43 1   
    46   42   48 1   
    47   42   49 1   
    48   43   44 1   
    49   43   45 1   
    50   50   51 1   
    51   50   54 1   
    52   51   52 1   
    53   51   55 1   
    54   51   56 1   
    55   52   53 2   
    56   52   57 1   
    57   57   58 1   
    58   57   65 1   
    59   58   59 1   
    60   58   61 1   
    61   58   66 1   
    62   59   60 2   
    63   59   69 1   
    64   61   62 1   
    65   61   67 1   
    66   61   68 1   
    67   62   63 1   
    68   62   64 1   
    69   69   70 1   
    70   69   73 1   
    71   70   71 1   
    72   70   74 1   
    73   70   75 1   
    74   71   72 2   
    75   71   76 1   
    76   76   77 1   
    77   76   85 1   
    78   77   78 1   
    79   77   80 1   
    80   77   86 1   
    81   78   79 2   
    82   78   93 1   
    83   80   81 1   
    84   80   87 1   
    85   80   88 1   
    86   81   82 1   
    87   81   89 1   
    88   81   90 1   
    89   82   83 1   
    90   82   84 2   
    91   83   91 1   
    92   83   92 1   
    93   93   94 1   
    94   93  100 1   
    95   94   95 1   
    96   94   97 1   
    97   94  101 1   
    98   95   96 2   
    99   95  109 1   
   100   97   98 1   
   101   97   99 1   
   102   97  102 1   
   103   98  103 1   
   104   98  104 1   
   105   98  105 1   
   106   99  106 1   
   107   99  107 1   
   108   99  108 1   
   109  109  110 1   
   110  109  117 1   
   111  110  111 1   
   112  110  113 1   
   113  110  118 1   
   114  111  112 2   
   115  111  123 1   
   116  113  114 1   
   117  113  119 1   
   118  113  120 1   
   119  114  115 1   
   120  114  116 2   
   121  115  121 1   
   122  115  122 1   
   123  123  124 1   
   124  123  135 1   
   125  124  125 1   
   126  124  127 1   
   127  124  136 1   
   128  125  126 2   
   129  125  144 1   
   130  127  128 1   
   131  127  137 1   
   132  127  138 1   
   133  128  129 ar  
   134  128  130 ar  
   135  129  131 ar  
   136  129  139 1   
   137  130  132 ar  
   138  130  140 1   
   139  131  133 ar  
   140  131  141 1   
   141  132  133 ar  
   142  132  142 1   
   143  133  134 1   
   144  134  143 1   
   145  144  145 1   
   146  144  153 1   
   147  145  146 1   
   148  145  148 1   
   149  145  154 1   
   150  146  147 2   
   151  146  159 1   
   152  148  149 1   
   153  148  155 1   
   154  148  156 1   
   155  149  150 1   
   156  149  157 1   
   157  149  158 1   
   158  150  151 1   
   159  150  152 1   
   160  159  160 1   
   161  159  168 1   
   162  160  161 1   
   163  160  163 1   
   164  160  169 1   
   165  161  162 2   
   166  161  174 1   
   167  163  164 1   
   168  163  170 1   
   169  163  171 1   
   170  164  165 1   
   171  164  172 1   
   172  164  173 1   
   173  165  166 1   
   174  165  167 1   
   175  174  175 1   
   176  174  179 1   
   177  175  176 1   
   178  175  177 1   
   179  175  178 1   
   180  181  182 1   
   181  181  183 1   
   182  184  185 1   
   183  184  186 1   
   184  187  188 1   
   185  187  189 1   
@<TRIPOS>SUBSTRUCTURE
     1 MOL         1 TEMP              0 ****  ****    0 ROOT
