@<TRIPOS>MOLECULE
MOL
  192   187     1     0     0
SMALL
resp


@<TRIPOS>ATOM
      1 C1          9.5030    1.5360    1.4750 c3        1 MOL     -0.570905
      2 C2          8.2610    1.0390    0.6780 c         1 MOL      0.826211
      3 O1          7.0900    1.3750    0.9580 o         1 MOL     -0.664829
      4 H1          9.4200    2.6090    1.6470 hc        1 MOL      0.141500
      5 H2          9.5520    1.0190    2.4330 hc        1 MOL      0.141500
      6 H3         10.4080    1.3300    0.9040 hc        1 MOL      0.141500
      7 N1          8.4940    0.1610   -0.2110 n         1 MOL     -0.755783
      8 C3          7.6260   -0.5270   -1.0910 c3        1 MOL      0.533392
      9 C4          7.5470   -2.0290   -1.0170 c         1 MOL      0.332044
     10 O2          8.1390   -2.8920   -1.7210 o         1 MOL     -0.498320
     11 C5          7.9760   -0.1680   -2.5230 c3        1 MOL     -0.300694
     12 C6          7.8400    1.3570   -2.8820 c         1 MOL      0.778737
     13 O3          6.9290    2.0220   -2.4330 o         1 MOL     -0.645605
     14 O4          8.6590    1.9250   -3.6880 o         1 MOL     -0.645605
     15 H4          9.4940    0.0490   -0.2630 hn        1 MOL      0.335737
     16 H5          6.6480   -0.0400   -1.0280 h1        1 MOL     -0.072142
     17 H6          7.2960   -0.6030   -3.2610 hc        1 MOL      0.051524
     18 H7          8.9740   -0.5190   -2.7910 hc        1 MOL      0.051524
     19 N2          6.7210   -2.3580   -0.0060 n         1 MOL     -0.391257
     20 C7          6.2100   -3.6890    0.2450 c3        1 MOL      0.494017
     21 C8          4.7960   -3.9450   -0.4480 c         1 MOL      0.456155
     22 O5          4.7870   -4.9330   -1.2370 o         1 MOL     -0.547321
     23 C9          6.4210   -4.1420    1.6520 c3        1 MOL     -0.302488
     24 C10         7.8960   -4.3900    2.0260 c3        1 MOL      0.278612
     25 C11         8.0740   -5.0750    3.3170 c3        1 MOL     -0.060632
     26 C12         9.5180   -5.3630    3.6050 c3        1 MOL     -0.097043
     27 N3          9.7620   -5.9780    4.9020 n4        1 MOL      0.005271
     28 H8          6.3040   -1.5990    0.5130 hn        1 MOL      0.189111
     29 H9          6.7620   -4.3690   -0.3900 h1        1 MOL     -0.011141
     30 H10         5.8940   -5.0920    1.7570 hc        1 MOL      0.035125
     31 H11         6.0510   -3.3860    2.3390 hc        1 MOL      0.035125
     32 H12         8.3440   -3.3970    1.9910 hc        1 MOL     -0.060665
     33 H13         8.3290   -5.0000    1.2330 hc        1 MOL     -0.060665
     34 H14         7.5680   -6.0330    3.1720 hc        1 MOL      0.041020
     35 H15         7.5500   -4.4710    4.0460 hc        1 MOL      0.041020
     36 H16         9.9490   -4.3650    3.6080 hx        1 MOL      0.093579
     37 H17         9.9330   -6.0350    2.8410 hx        1 MOL      0.093579
     38 H18         9.2410   -6.8210    5.0780 hn        1 MOL      0.168695
     39 H19        10.7530   -6.0900    5.0850 hn        1 MOL      0.168695
     40 H20         9.4280   -5.3850    5.6520 hn        1 MOL      0.168695
     41 N4          3.6620   -3.2870   -0.1780 n         1 MOL     -0.526552
     42 C13         3.5870   -2.0370    0.6150 c3        1 MOL      0.192077
     43 C14         3.7830   -0.7390   -0.2900 c         1 MOL      0.119274
     44 O6          3.7930   -0.8230   -1.5310 o         1 MOL     -0.322806
     45 C15         2.4410   -1.9100    1.6020 c3        1 MOL     -0.306574
     46 C16         1.1180   -2.1970    0.8910 c         1 MOL      0.682412
     47 O7          0.8150   -1.5950   -0.1860 o         1 MOL     -0.600883
     48 O8          0.3990   -3.0760    1.3710 o         1 MOL     -0.600883
     49 H21         2.8590   -3.5930   -0.7110 hn        1 MOL      0.379450
     50 H22         4.4890   -2.0240    1.2320 h1        1 MOL      0.003083
     51 H23         2.5050   -0.9490    2.1100 hc        1 MOL      0.064249
     52 H24         2.5690   -2.7920    2.2160 hc        1 MOL      0.064249
     53 N5          4.0120    0.4420    0.3360 n         1 MOL     -0.022134
     54 C17         4.1770    1.7800   -0.1920 c3        1 MOL     -0.245272
     55 C18         2.9400    2.2900   -0.9450 c         1 MOL      0.488047
     56 O9          1.8700    1.7100   -0.7790 o         1 MOL     -0.397251
     57 H25         4.1340    0.4620    1.3410 hn        1 MOL      0.220266
     58 H26         4.9640    1.7790   -0.9440 h1        1 MOL      0.145799
     59 H27         4.4690    2.4410    0.6240 h1        1 MOL      0.145799
     60 N6          3.1300    3.4070   -1.7450 n         1 MOL     -0.392059
     61 C19         2.0810    4.3600   -2.2290 c3        1 MOL      0.045562
     62 C20         2.6760    5.8340   -2.1540 c         1 MOL      0.544504
     63 O10         3.8530    6.0350   -1.9150 o         1 MOL     -0.514605
     64 C21         1.6710    3.9890   -3.6770 c3        1 MOL     -0.057502
     65 C22         1.1610    2.5590   -3.7120 c         1 MOL      0.603007
     66 O11         0.1340    2.2170   -3.0890 o         1 MOL     -0.652712
     67 O12         1.7980    1.7470   -4.3840 o         1 MOL     -0.652712
     68 H28         4.0890    3.6820   -1.8730 hn        1 MOL      0.297710
     69 H29         1.2170    4.3560   -1.5610 h1        1 MOL      0.081599
     70 H30         2.4670    4.2400   -4.3760 hc        1 MOL      0.020882
     71 H31         0.8190    4.5810   -4.0060 hc        1 MOL      0.020882
     72 N7          1.8690    6.9080   -2.1430 n         1 MOL     -0.546337
     73 C23         0.3570    6.8790   -1.9780 c3        1 MOL      0.000326
     74 C24        -0.2540    6.3670   -0.6370 c         1 MOL      0.668121
     75 O13         0.3660    6.5250    0.4130 o         1 MOL     -0.527836
     76 H32         2.3470    7.7970   -2.0320 hn        1 MOL      0.349721
     77 H33        -0.2260    6.4000   -2.7720 h1        1 MOL      0.041787
     78 H34         0.0490    7.9200   -1.9900 h1        1 MOL      0.041787
     79 N8         -1.3950    5.7490   -0.7580 n         1 MOL     -0.724903
     80 C25        -2.0130    4.9790    0.3730 c3        1 MOL      0.145347
     81 C26        -1.2040    3.7380    0.7300 c         1 MOL      0.604069
     82 O14        -0.7230    3.0110   -0.1540 o         1 MOL     -0.598779
     83 C27        -3.5470    4.7050    0.0750 c3        1 MOL      0.250262
     84 C28        -4.3680    4.3520    1.3300 c3        1 MOL     -0.333774
     85 O15        -3.5920    3.6060   -0.8950 oh        1 MOL     -0.598802
     86 H35        -1.7830    5.6320   -1.6820 hn        1 MOL      0.367194
     87 H36        -2.1080    5.5140    1.3160 h1        1 MOL      0.037058
     88 H37        -4.0010    5.5830   -0.3820 h1        1 MOL      0.040137
     89 H38        -4.4690    3.7840   -1.2550 ho        1 MOL      0.396843
     90 H39        -4.4140    5.2490    1.9510 hc        1 MOL      0.096775
     91 H40        -5.3260    3.9820    0.9790 hc        1 MOL      0.096775
     92 H41        -3.8330    3.6170    1.9310 hc        1 MOL      0.096775
     93 N9         -1.0000    3.5600    2.0400 n         1 MOL     -0.521261
     94 C29        -0.5010    2.3800    2.7800 c3        1 MOL     -0.000428
     95 C30        -1.0290    1.0330    2.3720 c         1 MOL      0.648407
     96 O16        -0.5750    0.4590    1.3660 o         1 MOL     -0.524257
     97 C31         1.0340    2.3140    2.8540 c3        1 MOL      0.481220
     98 C32         1.7940    3.6520    2.8080 c3        1 MOL     -0.038192
     99 C33         1.4210    1.5690    4.1320 c3        1 MOL     -0.561349
    100 C34         1.5900    4.5200    4.0360 c3        1 MOL     -0.202553
    101 H42        -1.4870    4.3080    2.5320 hn        1 MOL      0.296654
    102 H43        -0.8580    2.4250    3.8030 h1        1 MOL      0.010830
    103 H44         1.3940    1.7090    2.0160 hc        1 MOL     -0.236715
    104 H45         1.5620    4.2510    1.9240 hc        1 MOL      0.036694
    105 H46         2.8640    3.4780    2.7560 hc        1 MOL      0.036694
    106 H47         0.9720    0.5790    4.1770 hc        1 MOL      0.130208
    107 H48         2.5000    1.4120    4.1080 hc        1 MOL      0.130208
    108 H49         1.3720    2.1230    5.0760 hc        1 MOL      0.130208
    109 H50         1.7540    5.5740    3.7780 hc        1 MOL      0.046486
    110 H51         0.5650    4.4040    4.3770 hc        1 MOL      0.046486
    111 H52         2.2880    4.2180    4.8200 hc        1 MOL      0.046486
    112 N10        -2.0210    0.4580    3.1450 n         1 MOL     -0.464656
    113 C35        -2.5200   -0.8680    2.8620 c3        1 MOL     -0.326155
    114 C36        -4.0500   -0.8750    2.9420 c         1 MOL      0.613928
    115 O17        -4.6850   -1.9310    2.9620 o         1 MOL     -0.592835
    116 C37        -1.8790   -1.9250    3.7400 c3        1 MOL      0.498693
    117 C38        -2.2390   -1.7940    5.2460 c3        1 MOL     -0.356906
    118 O18        -0.5580   -1.9150    3.5210 oh        1 MOL     -0.559233
    119 H53        -2.1810    0.9160    4.0310 hn        1 MOL      0.301146
    120 H54        -2.2270   -1.2010    1.8660 h1        1 MOL      0.216974
    121 H55        -2.1860   -2.9460    3.5280 h1        1 MOL      0.001467
    122 H56        -0.3200   -2.3710    2.7100 ho        1 MOL      0.303145
    123 H57        -1.8270   -2.6640    5.7580 hc        1 MOL      0.079317
    124 H58        -1.7150   -0.9330    5.6520 hc        1 MOL      0.079317
    125 H59        -3.2940   -1.6920    5.4960 hc        1 MOL      0.079317
    126 N11        -4.7470    0.2820    3.0040 n         1 MOL     -0.307930
    127 C39        -6.2540    0.4250    2.8220 c3        1 MOL     -0.167857
    128 C40        -6.6930   -0.0880    1.3770 c         1 MOL      0.718671
    129 O19        -6.8320    0.6990    0.4840 o         1 MOL     -0.570035
    130 C41        -6.6480    1.8360    3.0220 c3        1 MOL      0.418890
    131 C42        -8.2050    2.1390    3.0330 c3        1 MOL     -0.357299
    132 O20        -6.1440    2.2820    4.2000 oh        1 MOL     -0.658679
    133 H60        -4.1430    1.0760    2.8790 hn        1 MOL      0.196750
    134 H61        -6.7170   -0.1600    3.6010 h1        1 MOL      0.085200
    135 H62        -6.2080    2.4140    2.2000 h1        1 MOL      0.026958
    136 H63        -6.7000    2.1500    4.9670 ho        1 MOL      0.421376
    137 H64        -8.6730    1.4750    3.7630 hc        1 MOL      0.086292
    138 H65        -8.4040    3.1590    3.3640 hc        1 MOL      0.086292
    139 H66        -8.7730    1.9240    2.1280 hc        1 MOL      0.086292
    140 N12        -6.7790   -1.4330    1.2890 n         1 MOL     -0.805223
    141 C43        -6.7360   -2.3150    0.1170 c3        1 MOL      0.422427
    142 C44        -5.4810   -2.0510   -0.7670 c         1 MOL      0.404476
    143 O21        -4.8180   -1.0970   -0.5330 o         1 MOL     -0.346716
    144 C45        -8.0210   -2.1770   -0.7590 c3        1 MOL     -0.099264
    145 C46        -9.3260   -2.0860    0.1110 c3        1 MOL      0.025948
    146 C47       -10.4630   -1.7650   -0.8490 c3        1 MOL      0.206613
    147 C48       -11.7780   -1.9880   -0.1280 c3        1 MOL     -0.004729
    148 N13       -13.0420   -2.0080   -1.0090 n4        1 MOL     -0.260311
    149 H67        -6.4560   -1.8720    2.1400 hn        1 MOL      0.369654
    150 H68        -6.6440   -3.3660    0.4000 h1        1 MOL      0.001940
    151 H69        -8.1420   -3.0460   -1.4030 hc        1 MOL      0.011348
    152 H70        -7.8830   -1.3460   -1.4450 hc        1 MOL      0.011348
    153 H71        -9.2710   -1.2900    0.8460 hc        1 MOL     -0.007120
    154 H72        -9.4110   -3.0890    0.5340 hc        1 MOL     -0.007120
    155 H73       -10.3660   -2.3910   -1.7390 hc        1 MOL     -0.013000
    156 H74       -10.4530   -0.7450   -1.2460 hc        1 MOL     -0.013000
    157 H75       -11.9200   -1.3200    0.7190 hx        1 MOL      0.059551
    158 H76       -11.7160   -2.9870    0.2930 hx        1 MOL      0.059551
    159 H77       -13.0880   -1.2540   -1.6850 hn        1 MOL      0.234167
    160 H78       -13.1090   -2.9260   -1.4150 hn        1 MOL      0.234167
    161 H79       -13.8810   -1.9020   -0.4520 hn        1 MOL      0.234167
    162 N14        -5.0760   -2.9300   -1.6840 n         1 MOL     -0.598244
    163 C49        -3.8070   -2.7870   -2.4590 c3        1 MOL      0.191935
    164 C50        -2.4990   -2.5090   -1.6830 c         1 MOL      0.497293
    165 O22        -1.8020   -1.5020   -1.9440 o         1 MOL     -0.703110
    166 C51        -3.5300   -4.0020   -3.3850 c3        1 MOL      0.026563
    167 C52        -4.4720   -4.3080   -4.5260 c3        1 MOL     -0.229772
    168 C53        -4.1110   -5.6510   -5.2350 c         1 MOL      0.628434
    169 O23        -4.6020   -6.7640   -4.8220 o         1 MOL     -0.603680
    170 O24        -3.2660   -5.6590   -6.1680 o         1 MOL     -0.603680
    171 H80        -5.7130   -3.6800   -1.9000 hn        1 MOL      0.328116
    172 H81        -3.9510   -1.9520   -3.1340 h1        1 MOL      0.068970
    173 H82        -3.4760   -4.9290   -2.8080 hc        1 MOL      0.057445
    174 H83        -2.6060   -3.8230   -3.9230 hc        1 MOL      0.057445
    175 H84        -4.3750   -3.4470   -5.1860 hc        1 MOL      0.021302
    176 H85        -5.4790   -4.4200   -4.1200 hc        1 MOL      0.021302
    177 N15        -1.9620   -3.2680   -0.7740 n         1 MOL     -0.306617
    178 C54        -2.5210   -4.5130   -0.2170 c3        1 MOL     -0.092240
    179 H86        -1.7970   -5.3200   -0.3360 h1        1 MOL      0.054448
    180 H87        -2.7380   -4.3730    0.8420 h1        1 MOL      0.054448
    181 H88        -3.4390   -4.7690   -0.7460 h1        1 MOL      0.054448
    182 H89        -1.1940   -2.8050   -0.3220 hn        1 MOL      0.290263
    183 Ca1        -0.5180    0.5750   -1.2100 Ca        1 MOL      1.751099
    184 O25        -2.6560    1.2370   -2.9150 oh        1 MOL     -0.920086
    185 H90        -3.4470    0.8730   -3.3090 ho        1 MOL      0.422372
    186 H91        -2.4270    1.9730   -3.4810 ho        1 MOL      0.422372
    187 O26         1.1970   -0.4810   -2.9560 oh        1 MOL     -0.920086
    188 H92         1.1420   -1.2090   -3.5760 ho        1 MOL      0.422372
    189 H93         1.4440    0.2700   -3.4930 ho        1 MOL      0.422372
    190 O27        -3.0600    0.6570   -0.0780 oh        1 MOL     -0.920086
    191 H94        -3.3480    1.5260   -0.3480 ho        1 MOL      0.422372
    192 H95        -3.8160    0.0980   -0.2380 ho        1 MOL      0.422372
@<TRIPOS>BOND
     1    1    2 1   
     2    1    4 1   
     3    1    5 1   
     4    1    6 1   
     5    2    3 2   
     6    2    7 1   
     7    7    8 1   
     8    7   15 1   
     9    8    9 1   
    10    8   11 1   
    11    8   16 1   
    12    9   10 2   
    13    9   19 1   
    14   11   12 1   
    15   11   17 1   
    16   11   18 1   
    17   12   13 1   
    18   12   14 1   
    19   19   20 1   
    20   19   28 1   
    21   20   21 1   
    22   20   23 1   
    23   20   29 1   
    24   21   22 2   
    25   21   41 1   
    26   23   24 1   
    27   23   30 1   
    28   23   31 1   
    29   24   25 1   
    30   24   32 1   
    31   24   33 1   
    32   25   26 1   
    33   25   34 1   
    34   25   35 1   
    35   26   27 1   
    36   26   36 1   
    37   26   37 1   
    38   27   38 1   
    39   27   39 1   
    40   27   40 1   
    41   41   42 1   
    42   41   49 1   
    43   42   43 1   
    44   42   45 1   
    45   42   50 1   
    46   43   44 2   
    47   43   53 1   
    48   45   46 1   
    49   45   51 1   
    50   45   52 1   
    51   46   47 1   
    52   46   48 1   
    53   53   54 1   
    54   53   57 1   
    55   54   55 1   
    56   54   58 1   
    57   54   59 1   
    58   55   56 2   
    59   55   60 1   
    60   60   61 1   
    61   60   68 1   
    62   61   62 1   
    63   61   64 1   
    64   61   69 1   
    65   62   63 2   
    66   62   72 1   
    67   64   65 1   
    68   64   70 1   
    69   64   71 1   
    70   65   66 1   
    71   65   67 1   
    72   72   73 1   
    73   72   76 1   
    74   73   74 1   
    75   73   77 1   
    76   73   78 1   
    77   74   75 2   
    78   74   79 1   
    79   79   80 1   
    80   79   86 1   
    81   80   81 1   
    82   80   83 1   
    83   80   87 1   
    84   81   82 2   
    85   81   93 1   
    86   83   84 1   
    87   83   85 1   
    88   83   88 1   
    89   84   90 1   
    90   84   91 1   
    91   84   92 1   
    92   85   89 1   
    93   93   94 1   
    94   93  101 1   
    95   94   95 1   
    96   94   97 1   
    97   94  102 1   
    98   95   96 2   
    99   95  112 1   
   100   97   98 1   
   101   97   99 1   
   102   97  103 1   
   103   98  100 1   
   104   98  104 1   
   105   98  105 1   
   106   99  106 1   
   107   99  107 1   
   108   99  108 1   
   109  100  109 1   
   110  100  110 1   
   111  100  111 1   
   112  112  113 1   
   113  112  119 1   
   114  113  114 1   
   115  113  116 1   
   116  113  120 1   
   117  114  115 2   
   118  114  126 1   
   119  116  117 1   
   120  116  118 1   
   121  116  121 1   
   122  117  123 1   
   123  117  124 1   
   124  117  125 1   
   125  118  122 1   
   126  126  127 1   
   127  126  133 1   
   128  127  128 1   
   129  127  130 1   
   130  127  134 1   
   131  128  129 2   
   132  128  140 1   
   133  130  131 1   
   134  130  132 1   
   135  130  135 1   
   136  131  137 1   
   137  131  138 1   
   138  131  139 1   
   139  132  136 1   
   140  140  141 1   
   141  140  149 1   
   142  141  142 1   
   143  141  144 1   
   144  141  150 1   
   145  142  143 2   
   146  142  162 1   
   147  144  145 1   
   148  144  151 1   
   149  144  152 1   
   150  145  146 1   
   151  145  153 1   
   152  145  154 1   
   153  146  147 1   
   154  146  155 1   
   155  146  156 1   
   156  147  148 1   
   157  147  157 1   
   158  147  158 1   
   159  148  159 1   
   160  148  160 1   
   161  148  161 1   
   162  162  163 1   
   163  162  171 1   
   164  163  164 1   
   165  163  166 1   
   166  163  172 1   
   167  164  165 2   
   168  164  177 1   
   169  166  167 1   
   170  166  173 1   
   171  166  174 1   
   172  167  168 1   
   173  167  175 1   
   174  167  176 1   
   175  168  169 1   
   176  168  170 1   
   177  177  178 1   
   178  177  182 1   
   179  178  179 1   
   180  178  180 1   
   181  178  181 1   
   182  184  185 1   
   183  184  186 1   
   184  187  188 1   
   185  187  189 1   
   186  190  191 1   
   187  190  192 1   
@<TRIPOS>SUBSTRUCTURE
     1 MOL         1 TEMP              0 ****  ****    0 ROOT
