@<TRIPOS>MOLECULE
MOL
  185   180     1     0     0
SMALL
resp


@<TRIPOS>ATOM
      1 C1         -7.3910    3.7660   -3.9460 c3        1 MOL     -0.463394
      2 C2         -6.2430    3.4870   -2.9120 c         1 MOL      0.626489
      3 O1         -5.0710    3.8510   -3.1220 o         1 MOL     -0.600234
      4 H1         -7.5420    4.8410   -4.0390 hc        1 MOL      0.114867
      5 H2         -7.1150    3.3530   -4.9160 hc        1 MOL      0.114867
      6 H3         -8.3130    3.2980   -3.6010 hc        1 MOL      0.114867
      7 N1         -6.6220    2.8260   -1.8640 n         1 MOL     -0.404537
      8 C3         -5.6840    2.3300   -0.8210 c3        1 MOL      0.033971
      9 C4         -5.1680    0.9380   -1.2670 c         1 MOL      0.386473
     10 O2         -3.9640    0.6540   -1.4640 o         1 MOL     -0.542856
     11 C5         -6.4000    2.2800    0.5660 c3        1 MOL      0.024785
     12 C6         -7.7380    1.6150    0.7060 c         1 MOL      0.627647
     13 O3         -8.1900    1.3940    1.8390 o         1 MOL     -0.658614
     14 O4         -8.3400    1.2640   -0.3520 o         1 MOL     -0.658614
     15 H4         -7.5990    2.6240   -1.7210 hn        1 MOL      0.222739
     16 H5         -4.8130    2.9740   -0.7510 h1        1 MOL      0.094982
     17 H6         -6.5410    3.3080    0.8890 hc        1 MOL      0.002959
     18 H7         -5.6820    1.8520    1.2540 hc        1 MOL      0.002959
     19 N2         -6.1080    0.0610   -1.5690 n         1 MOL     -0.132571
     20 C7         -5.8360   -1.2780   -2.1420 c3        1 MOL      0.034304
     21 C8         -5.5130   -2.3180   -1.1160 c         1 MOL      0.357204
     22 O5         -6.2320   -2.5850   -0.1150 o         1 MOL     -0.447080
     23 C9         -7.0400   -1.6880   -3.0350 c3        1 MOL     -0.458982
     24 C10        -6.8960   -3.1860   -3.4610 c3        1 MOL      0.310874
     25 C11        -7.9840   -3.6360   -4.4880 c3        1 MOL     -0.387850
     26 C12        -7.9080   -2.8420   -5.8240 c3        1 MOL      0.184303
     27 N3         -8.7330   -3.3550   -6.9610 n4        1 MOL     -0.287025
     28 H8         -7.0880    0.2580   -1.3730 hn        1 MOL      0.145237
     29 H9         -5.0120   -1.2200   -2.8470 h1        1 MOL      0.089907
     30 H10        -7.0280   -1.0260   -3.8910 hc        1 MOL      0.164440
     31 H11        -8.0100   -1.6380   -2.5360 hc        1 MOL      0.164440
     32 H12        -7.0560   -3.8660   -2.6180 hc        1 MOL      0.003016
     33 H13        -5.9240   -3.4480   -3.8590 hc        1 MOL      0.003016
     34 H14        -8.9210   -3.5240   -3.9540 hc        1 MOL      0.116215
     35 H15        -7.8000   -4.6870   -4.6870 hc        1 MOL      0.116215
     36 H16        -6.8670   -3.0300   -6.0820 hx        1 MOL      0.029866
     37 H17        -7.9780   -1.7510   -5.7580 hx        1 MOL      0.029866
     38 H18        -8.8090   -4.3550   -6.8780 hn        1 MOL      0.307176
     39 H19        -9.6850   -3.0520   -7.1170 hn        1 MOL      0.307176
     40 H20        -8.2690   -3.1520   -7.8320 hn        1 MOL      0.307176
     41 N4         -4.3080   -2.9270   -1.2530 n         1 MOL     -0.268755
     42 C13        -3.8660   -4.0980   -0.4220 c3        1 MOL     -0.193605
     43 C14        -3.6610   -3.6060    1.0360 c         1 MOL      0.643185
     44 O6         -3.3420   -2.4430    1.2930 o         1 MOL     -0.456213
     45 C15        -2.5030   -4.6040   -0.9460 c3        1 MOL     -0.145853
     46 C16        -1.3320   -3.5930   -1.0020 c         1 MOL      0.721165
     47 O7         -0.4500   -3.6620   -0.1310 o         1 MOL     -0.723228
     48 O8         -1.2620   -2.6720   -1.8480 o         1 MOL     -0.723228
     49 H21        -3.7760   -2.5150   -2.0040 hn        1 MOL      0.210653
     50 H22        -4.6200   -4.8800   -0.5050 h1        1 MOL      0.110174
     51 H23        -2.6440   -5.0800   -1.9170 hc        1 MOL      0.050682
     52 H24        -2.1520   -5.4240   -0.3210 hc        1 MOL      0.050682
     53 N5         -3.7030   -4.5420    1.9580 n         1 MOL     -0.533851
     54 C17        -3.5680   -4.3150    3.3780 c3        1 MOL      0.076264
     55 C18        -4.8370   -3.6030    3.9340 c         1 MOL      0.549800
     56 O9         -5.9730   -4.0180    3.6700 o         1 MOL     -0.524996
     57 H25        -3.7890   -5.5040    1.6670 hn        1 MOL      0.338143
     58 H26        -2.7120   -3.6610    3.4820 h1        1 MOL      0.054985
     59 H27        -3.3640   -5.1580    4.0400 h1        1 MOL      0.054985
     60 N6         -4.8160   -2.4820    4.6960 n         1 MOL     -0.533620
     61 C19        -3.6430   -1.6050    4.6690 c3        1 MOL      0.089197
     62 C20        -4.1500   -0.1330    4.8180 c         1 MOL      0.595827
     63 O10        -4.8100    0.2050    5.8080 o         1 MOL     -0.549468
     64 C21        -2.6720   -1.9260    5.8490 c3        1 MOL     -0.457674
     65 C22        -1.4360   -0.9490    5.6880 c         1 MOL      0.703493
     66 N7         -1.2480   -0.0090    6.5700 n         1 MOL     -0.794589
     67 O11        -0.6760   -1.0810    4.7610 o         1 MOL     -0.584400
     68 H28        -5.6850   -2.0450    4.9620 hn        1 MOL      0.362234
     69 H29        -3.0710   -1.6600    3.7460 h1        1 MOL      0.108111
     70 H30        -2.3240   -2.9390    5.7000 hc        1 MOL      0.148012
     71 H31        -3.1300   -1.7310    6.8210 hc        1 MOL      0.148012
     72 H32        -1.8240    0.1930    7.3710 hn        1 MOL      0.374885
     73 H33        -0.3250    0.4190    6.6200 hn        1 MOL      0.374885
     74 N8         -3.8020    0.8360    3.8990 n         1 MOL     -0.493291
     75 C23        -2.8820    0.7250    2.7790 c3        1 MOL      0.087573
     76 C24        -2.4350    2.0880    2.1470 c         1 MOL      0.531705
     77 O12        -3.1830    3.0630    1.9130 o         1 MOL     -0.523117
     78 H34        -4.1980    1.7540    4.0670 hn        1 MOL      0.297658
     79 H35        -3.2970    0.0310    2.0520 h1        1 MOL      0.022509
     80 H36        -2.0050    0.1960    3.1310 h1        1 MOL      0.022509
     81 N9         -1.1700    2.1100    1.7660 n         1 MOL     -0.610182
     82 C25        -0.5160    3.2430    1.0230 c3        1 MOL      0.246332
     83 C26         0.6340    2.6710    0.1230 c         1 MOL      0.403623
     84 O13         0.8420    1.4360    0.1220 o         1 MOL     -0.546763
     85 C27        -0.0440    4.2710    2.1060 c3        1 MOL     -0.003893
     86 C28         0.5220    5.5760    1.5540 ca        1 MOL     -0.024597
     87 C29         1.7060    6.0620    2.1240 ca        1 MOL     -0.080940
     88 C30        -0.0160    6.3130    0.5470 ca        1 MOL     -0.080940
     89 C31         2.3690    7.2410    1.7160 ca        1 MOL     -0.327235
     90 C32         0.4830    7.6190    0.2110 ca        1 MOL     -0.327235
     91 C33         1.7400    7.9920    0.7170 ca        1 MOL      0.374927
     92 O14         2.3700    9.0600    0.2540 oh        1 MOL     -0.456099
     93 H37        -0.6080    1.2900    1.9430 hn        1 MOL      0.336204
     94 H38        -1.2610    3.7660    0.4220 h1        1 MOL      0.048383
     95 H39         0.5920    3.7570    2.8190 hc        1 MOL      0.037738
     96 H40        -0.8800    4.6590    2.6820 hc        1 MOL      0.037738
     97 H41         2.1590    5.5210    2.9440 ha        1 MOL      0.116142
     98 H42        -0.9510    5.9870    0.1230 ha        1 MOL      0.116142
     99 H43         3.3150    7.5940    2.1080 ha        1 MOL      0.170779
    100 H44        -0.0190    8.2360   -0.5180 ha        1 MOL      0.170779
    101 H45         1.8270    9.4030   -0.4670 ho        1 MOL      0.342005
    102 N10         1.4110    3.5050   -0.5720 n         1 MOL     -0.205296
    103 C34         2.6470    3.1200   -1.2840 c3        1 MOL     -0.111313
    104 C35         3.7720    2.7940   -0.2360 c         1 MOL      0.516134
    105 O15         4.0410    3.7400    0.5290 o         1 MOL     -0.553609
    106 C36         3.2210    4.1570   -2.2560 c3        1 MOL      0.105470
    107 C37         2.7740    3.8390   -3.6890 c3        1 MOL     -0.029715
    108 C38         2.6880    5.5430   -1.7870 c3        1 MOL     -0.057229
    109 C39         3.1020    4.7510   -4.8480 c3        1 MOL     -0.131981
    110 H46         1.1450    4.4750   -0.5400 hn        1 MOL      0.114479
    111 H47         2.3710    2.2610   -1.8950 h1        1 MOL      0.062942
    112 H48         4.3050    4.2390   -2.2470 hc        1 MOL      0.025482
    113 H49         1.6820    3.8930   -3.6860 hc        1 MOL      0.029015
    114 H50         3.1100    2.8260   -3.9060 hc        1 MOL      0.029015
    115 H51         1.5980    5.5890   -1.8050 hc        1 MOL      0.025799
    116 H52         3.0070    5.8360   -0.7880 hc        1 MOL      0.025799
    117 H53         3.0420    6.3960   -2.3610 hc        1 MOL      0.025799
    118 H54         2.5420    4.4480   -5.7400 hc        1 MOL      0.031764
    119 H55         2.9190    5.8020   -4.6390 hc        1 MOL      0.031764
    120 H56         4.1570    4.6690   -5.1090 hc        1 MOL      0.031764
    121 N11         4.3660    1.6290   -0.2080 n         1 MOL     -0.224592
    122 C40         5.4780    1.2890    0.7730 c3        1 MOL      0.179847
    123 C41         5.3640   -0.1140    1.3510 c         1 MOL      0.357259
    124 O16         4.8110   -1.1220    0.7830 o         1 MOL     -0.361491
    125 C42         6.8830    1.4800    0.0700 c3        1 MOL     -0.255961
    126 O17         7.2170    0.3250   -0.7480 oh        1 MOL     -0.388200
    127 H57         3.9270    0.8060   -0.5940 hn        1 MOL      0.111856
    128 H58         5.3900    2.0220    1.5740 h1        1 MOL      0.035082
    129 H59         7.6750    1.6220    0.8060 h1        1 MOL      0.130007
    130 H60         6.7300    2.3630   -0.5610 h1        1 MOL      0.130007
    131 H61         8.1410    0.3940   -1.0040 ho        1 MOL      0.395991
    132 N12         6.0200   -0.3460    2.5500 n         1 MOL     -0.447603
    133 C43         6.4210   -1.6170    3.1240 c3        1 MOL      0.146954
    134 C44         7.3660   -2.3660    2.1700 c         1 MOL      0.539988
    135 O18         7.2590   -3.5920    2.1780 o         1 MOL     -0.466698
    136 C45         5.2250   -2.4000    3.6840 c3        1 MOL     -0.286216
    137 H62         6.5090    0.4310    2.9880 hn        1 MOL      0.276034
    138 H63         7.1300   -1.3840    3.9160 h1        1 MOL      0.052547
    139 H64         4.6080   -2.7480    2.8530 hc        1 MOL      0.087554
    140 H65         5.6390   -3.2250    4.2660 hc        1 MOL      0.087554
    141 H66         4.5840   -1.7430    4.2640 hc        1 MOL      0.087554
    142 N13         8.2740   -1.6760    1.5010 n         1 MOL     -0.597621
    143 C46         9.1710   -2.1040    0.4250 c3        1 MOL      0.517666
    144 C47         8.4840   -2.9660   -0.6070 c         1 MOL      0.195351
    145 O19         8.9480   -4.0400   -0.9200 o         1 MOL     -0.464309
    146 C48        10.3290   -2.8210    1.0400 c3        1 MOL     -0.384223
    147 H67         8.3620   -0.7080    1.7610 hn        1 MOL      0.269252
    148 H68         9.5630   -1.2610   -0.1360 h1        1 MOL     -0.050534
    149 H69        10.8460   -2.0720    1.6350 hc        1 MOL      0.098050
    150 H70         9.9350   -3.6140    1.6830 hc        1 MOL      0.098050
    151 H71        11.0230   -3.1380    0.2570 hc        1 MOL      0.098050
    152 N14         7.2860   -2.5920   -1.1020 n         1 MOL      0.099312
    153 C49         6.5750   -3.1700   -2.2210 c3        1 MOL     -0.232721
    154 C50         7.1620   -2.7480   -3.5620 c         1 MOL      0.558591
    155 O20         7.3040   -3.5360   -4.4760 o         1 MOL     -0.519462
    156 C51         5.0150   -3.0010   -2.0270 c3        1 MOL      0.215047
    157 C52         4.5440   -1.5880   -2.3840 c3        1 MOL     -0.145345
    158 C53         3.0520   -1.3240   -2.1010 c         1 MOL      0.657224
    159 O21         2.7850   -0.2950   -1.3770 o         1 MOL     -0.688269
    160 O22         2.1930   -2.1910   -2.2870 o         1 MOL     -0.688269
    161 H72         6.8930   -1.7080   -0.7920 hn        1 MOL     -0.141598
    162 H73         6.6550   -4.2540   -2.1970 h1        1 MOL      0.114976
    163 H74         4.7540   -3.2170   -0.9910 hc        1 MOL      0.000096
    164 H75         4.5780   -3.7850   -2.6480 hc        1 MOL      0.000096
    165 H76         4.6810   -1.4200   -3.4470 hc        1 MOL      0.027163
    166 H77         5.1220   -0.8300   -1.8510 hc        1 MOL      0.027163
    167 N15         7.5860   -1.4830   -3.6300 n         1 MOL     -0.281191
    168 C54         7.9300   -0.9230   -4.9760 c3        1 MOL     -0.122979
    169 H78         8.7410   -0.2010   -4.8730 h1        1 MOL      0.073826
    170 H79         8.2460   -1.7300   -5.6370 h1        1 MOL      0.073826
    171 H80         7.0560   -0.4270   -5.3990 h1        1 MOL      0.073826
    172 H81         7.8020   -0.8870   -2.8450 hn        1 MOL      0.175522
    173 Ca1         0.4630   -1.2470   -0.5940 Ca        1 MOL      1.676678
    174 O23        -0.3730    0.1590   -2.6530 oh        1 MOL     -0.788645
    175 H82        -1.2680    0.4650   -2.7780 ho        1 MOL      0.388394
    176 H83         0.1640    0.7500   -3.1810 ho        1 MOL      0.388394
    177 O24         2.3750   -2.4710    0.8130 oh        1 MOL     -0.788645
    178 H84         2.0550   -2.3300    1.6980 ho        1 MOL      0.388394
    179 H85         3.2400   -2.0540    0.7930 ho        1 MOL      0.388394
    180 O25        -2.0760   -0.3780   -0.1440 oh        1 MOL     -0.788645
    181 H86        -2.6390   -0.8460    0.4710 ho        1 MOL      0.388394
    182 H87        -2.6790    0.0210   -0.7820 ho        1 MOL      0.388394
    183 O26         0.3310   -0.8140    2.0770 oh        1 MOL     -0.788645
    184 H88         0.0280   -1.2850    2.8460 ho        1 MOL      0.388394
    185 H89         1.1160   -0.3440    2.3770 ho        1 MOL      0.388394
@<TRIPOS>BOND
     1    1    2 1   
     2    1    4 1   
     3    1    5 1   
     4    1    6 1   
     5    2    3 2   
     6    2    7 1   
     7    7    8 1   
     8    7   15 1   
     9    8    9 1   
    10    8   11 1   
    11    8   16 1   
    12    9   10 2   
    13    9   19 1   
    14   11   12 1   
    15   11   17 1   
    16   11   18 1   
    17   12   13 1   
    18   12   14 1   
    19   19   20 1   
    20   19   28 1   
    21   20   21 1   
    22   20   23 1   
    23   20   29 1   
    24   21   22 2   
    25   21   41 1   
    26   23   24 1   
    27   23   30 1   
    28   23   31 1   
    29   24   25 1   
    30   24   32 1   
    31   24   33 1   
    32   25   26 1   
    33   25   34 1   
    34   25   35 1   
    35   26   27 1   
    36   26   36 1   
    37   26   37 1   
    38   27   38 1   
    39   27   39 1   
    40   27   40 1   
    41   41   42 1   
    42   41   49 1   
    43   42   43 1   
    44   42   45 1   
    45   42   50 1   
    46   43   44 2   
    47   43   53 1   
    48   45   46 1   
    49   45   51 1   
    50   45   52 1   
    51   46   47 1   
    52   46   48 1   
    53   53   54 1   
    54   53   57 1   
    55   54   55 1   
    56   54   58 1   
    57   54   59 1   
    58   55   56 2   
    59   55   60 1   
    60   60   61 1   
    61   60   68 1   
    62   61   62 1   
    63   61   64 1   
    64   61   69 1   
    65   62   63 2   
    66   62   74 1   
    67   64   65 1   
    68   64   70 1   
    69   64   71 1   
    70   65   66 1   
    71   65   67 2   
    72   66   72 1   
    73   66   73 1   
    74   74   75 1   
    75   74   78 1   
    76   75   76 1   
    77   75   79 1   
    78   75   80 1   
    79   76   77 2   
    80   76   81 1   
    81   81   82 1   
    82   81   93 1   
    83   82   83 1   
    84   82   85 1   
    85   82   94 1   
    86   83   84 2   
    87   83  102 1   
    88   85   86 1   
    89   85   95 1   
    90   85   96 1   
    91   86   87 ar  
    92   86   88 ar  
    93   87   89 ar  
    94   87   97 1   
    95   88   90 ar  
    96   88   98 1   
    97   89   91 ar  
    98   89   99 1   
    99   90   91 ar  
   100   90  100 1   
   101   91   92 1   
   102   92  101 1   
   103  102  103 1   
   104  102  110 1   
   105  103  104 1   
   106  103  106 1   
   107  103  111 1   
   108  104  105 2   
   109  104  121 1   
   110  106  107 1   
   111  106  108 1   
   112  106  112 1   
   113  107  109 1   
   114  107  113 1   
   115  107  114 1   
   116  108  115 1   
   117  108  116 1   
   118  108  117 1   
   119  109  118 1   
   120  109  119 1   
   121  109  120 1   
   122  121  122 1   
   123  121  127 1   
   124  122  123 1   
   125  122  125 1   
   126  122  128 1   
   127  123  124 2   
   128  123  132 1   
   129  125  126 1   
   130  125  129 1   
   131  125  130 1   
   132  126  131 1   
   133  132  133 1   
   134  132  137 1   
   135  133  134 1   
   136  133  136 1   
   137  133  138 1   
   138  134  135 2   
   139  134  142 1   
   140  136  139 1   
   141  136  140 1   
   142  136  141 1   
   143  142  143 1   
   144  142  147 1   
   145  143  144 1   
   146  143  146 1   
   147  143  148 1   
   148  144  145 2   
   149  144  152 1   
   150  146  149 1   
   151  146  150 1   
   152  146  151 1   
   153  152  153 1   
   154  152  161 1   
   155  153  154 1   
   156  153  156 1   
   157  153  162 1   
   158  154  155 2   
   159  154  167 1   
   160  156  157 1   
   161  156  163 1   
   162  156  164 1   
   163  157  158 1   
   164  157  165 1   
   165  157  166 1   
   166  158  159 1   
   167  158  160 1   
   168  167  168 1   
   169  167  172 1   
   170  168  169 1   
   171  168  170 1   
   172  168  171 1   
   173  174  175 1   
   174  174  176 1   
   175  177  178 1   
   176  177  179 1   
   177  180  181 1   
   178  180  182 1   
   179  183  184 1   
   180  183  185 1   
@<TRIPOS>SUBSTRUCTURE
     1 MOL         1 TEMP              0 ****  ****    0 ROOT
