@<TRIPOS>MOLECULE
MOL
  198   191     1     0     0
SMALL
resp


@<TRIPOS>ATOM
      1 C1          3.5240    6.0590   -1.3060 c3        1 MOL     -0.381981
      2 C2          5.0230    5.7970   -1.0700 c         1 MOL      0.720581
      3 O1          5.5300    6.4630   -0.1640 o         1 MOL     -0.577675
      4 H1          3.3600    6.3100   -2.3530 hc        1 MOL      0.092792
      5 H2          2.9540    5.1650   -1.0520 hc        1 MOL      0.092792
      6 H3          3.1970    6.8890   -0.6790 hc        1 MOL      0.092792
      7 N1          5.6590    4.9930   -1.9440 n         1 MOL     -0.705417
      8 C3          7.0920    4.4790   -1.8790 c3        1 MOL      0.476459
      9 C4          7.4240    3.8190   -0.4920 c         1 MOL      0.416790
     10 O2          6.5810    3.6980    0.3610 o         1 MOL     -0.518390
     11 C5          8.0240    5.6780   -2.2170 c3        1 MOL     -0.377273
     12 C6          9.4870    5.3880   -2.6870 c         1 MOL      0.662866
     13 O3          9.8520    4.2280   -2.8140 o         1 MOL     -0.690483
     14 O4         10.3690    6.3270   -2.7370 o         1 MOL     -0.690483
     15 H4          5.0750    4.6750   -2.6950 hn        1 MOL      0.321628
     16 H5          7.2060    3.7790   -2.7000 h1        1 MOL     -0.010574
     17 H6          8.1080    6.2990   -1.3300 hc        1 MOL      0.082996
     18 H7          7.5960    6.3920   -2.9180 hc        1 MOL      0.082996
     19 N2          8.6340    3.2230   -0.3750 n         1 MOL     -0.441173
     20 C7          9.1370    2.4020    0.7650 c3        1 MOL     -0.004421
     21 C8          8.3250    1.0490    0.9900 c         1 MOL      0.354697
     22 O5          8.4790    0.5090    2.1320 o         1 MOL     -0.540745
     23 C9          9.2310    3.2950    2.0500 c3        1 MOL      0.087154
     24 C10        10.2080    4.4170    1.8980 c3        1 MOL     -0.002405
     25 C11        10.4920    4.9900    3.2730 c3        1 MOL     -0.049915
     26 C12         9.1960    5.3620    4.0120 c3        1 MOL      0.126254
     27 N3          9.3760    5.7520    5.4230 n4        1 MOL     -0.486998
     28 H8          9.2500    3.3640   -1.1630 hn        1 MOL      0.273333
     29 H9         10.1220    2.0700    0.4340 h1        1 MOL      0.110423
     30 H10         9.6170    2.6420    2.8310 hc        1 MOL     -0.015483
     31 H11         8.2270    3.6280    2.3250 hc        1 MOL     -0.015483
     32 H12         9.8640    5.2600    1.2900 hc        1 MOL      0.055263
     33 H13        11.1670    4.1140    1.4990 hc        1 MOL      0.055263
     34 H14        11.0590    5.9110    3.1780 hc        1 MOL      0.011821
     35 H15        11.0500    4.3160    3.9220 hc        1 MOL      0.011821
     36 H16         8.6270    4.4370    4.0760 hx        1 MOL      0.084960
     37 H17         8.6140    6.0460    3.3900 hx        1 MOL      0.084960
     38 H18        10.2650    6.2100    5.5080 hn        1 MOL      0.352609
     39 H19         8.6120    6.2900    5.8140 hn        1 MOL      0.352609
     40 H20         9.4010    4.9280    6.0140 hn        1 MOL      0.352609
     41 N4          7.6710    0.6050   -0.0600 n         1 MOL     -0.185712
     42 C13         6.9330   -0.5910   -0.2430 c3        1 MOL      0.329866
     43 C14         7.2460   -1.4280   -1.4920 c         1 MOL      0.311980
     44 O6          7.3490   -0.9390   -2.6080 o         1 MOL     -0.524451
     45 C15         5.4540   -0.2620   -0.1900 c3        1 MOL     -0.205169
     46 C16         4.4690   -1.3050    0.4800 c         1 MOL      0.810657
     47 O7          4.8730   -2.3040    1.1030 o         1 MOL     -0.738253
     48 O8          3.2700   -1.0510    0.4730 o         1 MOL     -0.738253
     49 H21         7.6690    1.3630   -0.7200 hn        1 MOL      0.121269
     50 H22         7.2130   -1.1900    0.6290 h1        1 MOL     -0.010302
     51 H23         5.0230    0.2080   -1.0730 hc        1 MOL      0.059442
     52 H24         5.2990    0.5530    0.5250 hc        1 MOL      0.059442
     53 N5          7.3250   -2.7620   -1.4680 n         1 MOL     -0.300281
     54 C17         7.4230   -3.6310   -0.3230 c3        1 MOL     -0.102506
     55 C18         6.4960   -4.7990   -0.5290 c         1 MOL      0.445427
     56 O9          6.8590   -5.7080   -1.3120 o         1 MOL     -0.528899
     57 H25         7.3770   -3.2130   -2.3730 hn        1 MOL      0.295687
     58 H26         7.1440   -3.1510    0.6100 h1        1 MOL      0.096380
     59 H27         8.4410   -4.0220   -0.2490 h1        1 MOL      0.096380
     60 N6          5.2120   -4.7590   -0.0200 n         1 MOL     -0.151503
     61 C19         4.2570   -5.8260    0.0890 c3        1 MOL      0.073576
     62 C20         2.7380   -5.3520   -0.0080 c         1 MOL      0.778525
     63 O10         2.4370   -4.2060    0.3350 o         1 MOL     -0.774193
     64 C21         4.4670   -6.6880    1.3250 c3        1 MOL     -0.034217
     65 C22         4.7240   -5.8110    2.5830 c         1 MOL      0.564183
     66 O11         5.6400   -6.1380    3.4040 o         1 MOL     -0.660977
     67 O12         3.9880   -4.8320    2.7070 o         1 MOL     -0.660977
     68 H28         4.9050   -3.8510    0.3010 hn        1 MOL      0.080921
     69 H29         4.4550   -6.4590   -0.7750 h1        1 MOL     -0.055969
     70 H30         5.3300   -7.3480    1.2510 hc        1 MOL     -0.010027
     71 H31         3.5490   -7.2650    1.3960 hc        1 MOL     -0.010027
     72 N7          1.8910   -6.2120   -0.5200 n         1 MOL     -0.476234
     73 C23         0.4640   -5.9220   -0.7840 c3        1 MOL      0.068295
     74 C24         0.1480   -4.7700   -1.7350 c         1 MOL      0.382005
     75 O13        -0.9120   -4.8770   -2.3650 o         1 MOL     -0.557355
     76 H32         2.2010   -7.1720   -0.6240 hn        1 MOL      0.305388
     77 H33        -0.0880   -5.5670    0.0860 h1        1 MOL      0.053126
     78 H34        -0.0480   -6.8240   -1.1050 h1        1 MOL      0.053126
     79 N8          1.0260   -3.8420   -1.9970 n         1 MOL     -0.084483
     80 C25         0.7990   -2.6590   -2.8560 c3        1 MOL     -0.128525
     81 C26         0.2680   -1.4130   -2.1030 c         1 MOL      0.516309
     82 O14         0.6240   -1.2330   -0.9200 o         1 MOL     -0.562058
     83 C27         2.1370   -2.3740   -3.6260 c3        1 MOL      0.311142
     84 C28         3.2680   -1.8570   -2.7810 c3        1 MOL     -0.054237
     85 O15         2.5960   -3.6110   -4.0720 oh        1 MOL     -0.583357
     86 H35         1.9520   -4.0400   -1.6500 hn        1 MOL      0.125203
     87 H36         0.1320   -2.9840   -3.6530 h1        1 MOL      0.064392
     88 H37         2.0070   -1.6190   -4.4010 h1        1 MOL     -0.023748
     89 H38         1.9610   -3.8760   -4.7510 ho        1 MOL      0.386196
     90 H39         3.0770   -0.9060   -2.2970 hc        1 MOL      0.035119
     91 H40         3.5750   -2.5550   -1.9970 hc        1 MOL      0.035119
     92 H41         4.1520   -1.6830   -3.4040 hc        1 MOL      0.035119
     93 N9         -0.4480   -0.4840   -2.7810 n         1 MOL     -0.189978
     94 C29        -0.9120    0.8470   -2.2010 c3        1 MOL     -0.135604
     95 C30        -2.1880    0.8220   -1.4040 c         1 MOL      0.463829
     96 O16        -2.6230    1.7600   -0.7680 o         1 MOL     -0.501306
     97 C31        -0.7710    2.0610   -3.1370 c3        1 MOL      0.011155
     98 C32        -1.5030    1.7650   -4.5020 c3        1 MOL      0.192226
     99 C33         0.7390    2.2830   -3.3600 c3        1 MOL     -0.049320
    100 C34        -1.5530    2.9880   -5.4760 c3        1 MOL     -0.369442
    101 H42        -0.6430   -0.6750   -3.7550 hn        1 MOL      0.193720
    102 H43        -0.2090    1.0590   -1.3980 h1        1 MOL      0.159968
    103 H44        -1.1480    2.9410   -2.6240 hc        1 MOL      0.069822
    104 H45        -2.5550    1.5500   -4.3070 hc        1 MOL     -0.016951
    105 H46        -1.1960    0.8490   -5.0040 hc        1 MOL     -0.016951
    106 H47         1.2810    2.4710   -2.4280 hc        1 MOL      0.004547
    107 H48         1.2290    1.3930   -3.7640 hc        1 MOL      0.004547
    108 H49         0.7920    3.0900   -4.0900 hc        1 MOL      0.004547
    109 H50        -1.9850    2.6910   -6.4320 hc        1 MOL      0.096926
    110 H51        -2.2190    3.7680   -5.1140 hc        1 MOL      0.096926
    111 H52        -0.5310    3.2960   -5.7010 hc        1 MOL      0.096926
    112 N10        -2.8880   -0.3510   -1.4740 n         1 MOL     -0.306066
    113 C35        -4.0290   -0.7800   -0.6440 c3        1 MOL      0.010993
    114 C36        -5.1460   -1.4410   -1.4390 c         1 MOL      0.539327
    115 O17        -4.9620   -1.9410   -2.5430 o         1 MOL     -0.495044
    116 C37        -3.5300   -1.6340    0.5090 c3        1 MOL      0.433212
    117 C38        -2.7700   -2.9010    0.1590 c3        1 MOL     -0.292976
    118 O18        -2.6820   -0.9390    1.3710 oh        1 MOL     -0.732114
    119 H53        -2.5710   -1.0790   -2.0970 hn        1 MOL      0.134499
    120 H54        -4.5200    0.0670   -0.1680 h1        1 MOL      0.060035
    121 H55        -4.4180   -1.8040    1.1190 h1        1 MOL     -0.064714
    122 H56        -3.1900   -0.4660    2.0320 ho        1 MOL      0.444560
    123 H57        -3.4600   -3.5950   -0.3240 hc        1 MOL      0.080357
    124 H58        -2.0110   -2.6230   -0.5680 hc        1 MOL      0.080357
    125 H59        -2.3860   -3.4100    1.0440 hc        1 MOL      0.080357
    126 N11        -6.3580   -1.5470   -0.8760 n         1 MOL     -0.507492
    127 C39        -7.5550   -2.2490   -1.3560 c3        1 MOL     -0.005115
    128 C40        -8.8250   -1.3260   -1.2750 c         1 MOL      0.582632
    129 O19        -9.6380   -1.1600   -2.1980 o         1 MOL     -0.546781
    130 C41        -7.7830   -3.6430   -0.7090 c3        1 MOL      0.384337
    131 C42        -9.0400   -4.3180   -1.2690 c3        1 MOL     -0.459299
    132 O20        -7.7950   -3.4110    0.6250 oh        1 MOL     -0.618462
    133 H60        -6.4890   -0.9500   -0.0690 hn        1 MOL      0.267798
    134 H61        -7.3960   -2.4450   -2.4140 h1        1 MOL      0.088879
    135 H62        -6.8430   -4.1630   -0.8470 h1        1 MOL      0.003703
    136 H63        -6.9880   -3.8230    0.9540 ho        1 MOL      0.391518
    137 H64        -9.0320   -5.3420   -0.8790 hc        1 MOL      0.128094
    138 H65        -9.9870   -3.9560   -0.8930 hc        1 MOL      0.128094
    139 H66        -9.0090   -4.2290   -2.3550 hc        1 MOL      0.128094
    140 N12        -8.9230   -0.7090   -0.1060 n         1 MOL     -0.444905
    141 C43        -9.8750    0.4400    0.1500 c3        1 MOL     -0.095687
    142 C44        -9.3850    1.3900    1.2420 c         1 MOL      0.591429
    143 O21        -8.8740    1.0590    2.3000 o         1 MOL     -0.502703
    144 C45       -11.1720   -0.2560    0.6150 c3        1 MOL     -0.029952
    145 C46       -12.4100    0.6420    0.6000 c3        1 MOL     -0.017555
    146 C47       -13.7000   -0.0800    0.5560 c3        1 MOL      0.231222
    147 C48       -14.0260   -0.7690    1.8490 c3        1 MOL     -0.030211
    148 N13       -15.0070   -1.8160    1.6220 n4        1 MOL     -0.323361
    149 H67        -8.2130   -0.9920    0.5540 hn        1 MOL      0.266386
    150 H68       -10.1500    1.0280   -0.7270 h1        1 MOL      0.157777
    151 H69       -11.1170   -0.5890    1.6550 hc        1 MOL      0.030691
    152 H70       -11.4230   -1.1470    0.0350 hc        1 MOL      0.030691
    153 H71       -12.3520    1.2910   -0.2710 hc        1 MOL     -0.017192
    154 H72       -12.5050    1.3140    1.4440 hc        1 MOL     -0.017192
    155 H73       -13.5730   -0.8210   -0.2360 hc        1 MOL     -0.019007
    156 H74       -14.6050    0.4650    0.2630 hc        1 MOL     -0.019007
    157 H75       -14.4140   -0.0180    2.5330 hx        1 MOL      0.088542
    158 H76       -13.1950   -1.2910    2.3440 hx        1 MOL      0.088542
    159 H77       -14.6940   -2.5230    0.9690 hn        1 MOL      0.271093
    160 H78       -15.1570   -2.3050    2.4970 hn        1 MOL      0.271093
    161 H79       -15.8740   -1.4260    1.2660 hn        1 MOL      0.271093
    162 N14        -9.4140    2.7280    0.8830 n         1 MOL     -0.434294
    163 C49        -8.8530    3.7370    1.7380 c3        1 MOL      0.101391
    164 C50        -7.3110    3.6580    1.9120 c         1 MOL      0.442644
    165 O22        -6.8060    3.5050    3.0150 o         1 MOL     -0.524816
    166 C51        -9.2660    5.1300    1.2020 c3        1 MOL     -0.056063
    167 C52       -10.6660    5.5990    1.6570 c3        1 MOL     -0.203346
    168 C53       -11.2880    6.5710    0.6200 c         1 MOL      0.677271
    169 O23       -11.7990    6.1670   -0.4700 o         1 MOL     -0.653845
    170 O24       -11.2370    7.7880    0.9130 o         1 MOL     -0.653845
    171 H80        -9.6740    3.0310   -0.0380 hn        1 MOL      0.250109
    172 H81        -9.3160    3.5980    2.7200 h1        1 MOL      0.072504
    173 H82        -9.2670    5.0370    0.1130 hc        1 MOL      0.069349
    174 H83        -8.4750    5.8570    1.4070 hc        1 MOL      0.069349
    175 H84       -10.7140    5.9280    2.6990 hc        1 MOL      0.035945
    176 H85       -11.2330    4.6700    1.5700 hc        1 MOL      0.035945
    177 N15        -6.3910    3.8410    0.8760 n         1 MOL     -0.425065
    178 C54        -6.5320    4.2950   -0.5550 c3        1 MOL     -0.030147
    179 H86        -6.9200    3.4750   -1.1590 h1        1 MOL      0.051972
    180 H87        -7.2220    5.1380   -0.6030 h1        1 MOL      0.051972
    181 H88        -5.5580    4.5990   -0.9390 h1        1 MOL      0.051972
    182 H89        -5.4320    3.5750    1.0570 hn        1 MOL      0.296950
    183 Ca1         2.5140   -2.6020    2.4410 Ca        1 MOL      1.822564
    184 O25         0.6030   -4.8130    2.9830 oh        1 MOL     -0.863592
    185 H90        -0.0300   -4.3520    3.5320 ho        1 MOL      0.425316
    186 H91         0.1060   -5.5420    2.6120 ho        1 MOL      0.425316
    187 O26         3.3230   -0.1970    3.3970 oh        1 MOL     -0.863592
    188 H92         2.6060    0.4090    3.5780 ho        1 MOL      0.425316
    189 H93         4.0780    0.1860    3.8500 ho        1 MOL      0.425316
    190 O27         4.0990   -2.4360    4.8140 oh        1 MOL     -0.863592
    191 H94         4.1750   -3.0850    5.5090 ho        1 MOL      0.425316
    192 H95         4.9540   -2.0060    4.7990 ho        1 MOL      0.425316
    193 O28         0.3750   -1.3320    1.6300 oh        1 MOL     -0.863592
    194 H96        -0.5230   -1.1620    1.9030 ho        1 MOL      0.425316
    195 H97         0.3720   -1.2280    0.6770 ho        1 MOL      0.425316
    196 O29         1.0070   -2.0350    4.4950 oh        1 MOL     -0.863592
    197 H98         1.3600   -1.5730    5.2590 ho        1 MOL      0.425316
    198 H99         0.0650   -1.8690    4.5400 ho        1 MOL      0.425316
@<TRIPOS>BOND
     1    1    2 1   
     2    1    4 1   
     3    1    5 1   
     4    1    6 1   
     5    2    3 2   
     6    2    7 1   
     7    7    8 1   
     8    7   15 1   
     9    8    9 1   
    10    8   11 1   
    11    8   16 1   
    12    9   10 2   
    13    9   19 1   
    14   11   12 1   
    15   11   17 1   
    16   11   18 1   
    17   12   13 1   
    18   12   14 1   
    19   19   20 1   
    20   19   28 1   
    21   20   21 1   
    22   20   23 1   
    23   20   29 1   
    24   21   22 2   
    25   21   41 1   
    26   23   24 1   
    27   23   30 1   
    28   23   31 1   
    29   24   25 1   
    30   24   32 1   
    31   24   33 1   
    32   25   26 1   
    33   25   34 1   
    34   25   35 1   
    35   26   27 1   
    36   26   36 1   
    37   26   37 1   
    38   27   38 1   
    39   27   39 1   
    40   27   40 1   
    41   41   42 1   
    42   41   49 1   
    43   42   43 1   
    44   42   45 1   
    45   42   50 1   
    46   43   44 2   
    47   43   53 1   
    48   45   46 1   
    49   45   51 1   
    50   45   52 1   
    51   46   47 1   
    52   46   48 1   
    53   53   54 1   
    54   53   57 1   
    55   54   55 1   
    56   54   58 1   
    57   54   59 1   
    58   55   56 2   
    59   55   60 1   
    60   60   61 1   
    61   60   68 1   
    62   61   62 1   
    63   61   64 1   
    64   61   69 1   
    65   62   63 2   
    66   62   72 1   
    67   64   65 1   
    68   64   70 1   
    69   64   71 1   
    70   65   66 1   
    71   65   67 1   
    72   72   73 1   
    73   72   76 1   
    74   73   74 1   
    75   73   77 1   
    76   73   78 1   
    77   74   75 2   
    78   74   79 1   
    79   79   80 1   
    80   79   86 1   
    81   80   81 1   
    82   80   83 1   
    83   80   87 1   
    84   81   82 2   
    85   81   93 1   
    86   83   84 1   
    87   83   85 1   
    88   83   88 1   
    89   84   90 1   
    90   84   91 1   
    91   84   92 1   
    92   85   89 1   
    93   93   94 1   
    94   93  101 1   
    95   94   95 1   
    96   94   97 1   
    97   94  102 1   
    98   95   96 2   
    99   95  112 1   
   100   97   98 1   
   101   97   99 1   
   102   97  103 1   
   103   98  100 1   
   104   98  104 1   
   105   98  105 1   
   106   99  106 1   
   107   99  107 1   
   108   99  108 1   
   109  100  109 1   
   110  100  110 1   
   111  100  111 1   
   112  112  113 1   
   113  112  119 1   
   114  113  114 1   
   115  113  116 1   
   116  113  120 1   
   117  114  115 2   
   118  114  126 1   
   119  116  117 1   
   120  116  118 1   
   121  116  121 1   
   122  117  123 1   
   123  117  124 1   
   124  117  125 1   
   125  118  122 1   
   126  126  127 1   
   127  126  133 1   
   128  127  128 1   
   129  127  130 1   
   130  127  134 1   
   131  128  129 2   
   132  128  140 1   
   133  130  131 1   
   134  130  132 1   
   135  130  135 1   
   136  131  137 1   
   137  131  138 1   
   138  131  139 1   
   139  132  136 1   
   140  140  141 1   
   141  140  149 1   
   142  141  142 1   
   143  141  144 1   
   144  141  150 1   
   145  142  143 2   
   146  142  162 1   
   147  144  145 1   
   148  144  151 1   
   149  144  152 1   
   150  145  146 1   
   151  145  153 1   
   152  145  154 1   
   153  146  147 1   
   154  146  155 1   
   155  146  156 1   
   156  147  148 1   
   157  147  157 1   
   158  147  158 1   
   159  148  159 1   
   160  148  160 1   
   161  148  161 1   
   162  162  163 1   
   163  162  171 1   
   164  163  164 1   
   165  163  166 1   
   166  163  172 1   
   167  164  165 2   
   168  164  177 1   
   169  166  167 1   
   170  166  173 1   
   171  166  174 1   
   172  167  168 1   
   173  167  175 1   
   174  167  176 1   
   175  168  169 1   
   176  168  170 1   
   177  177  178 1   
   178  177  182 1   
   179  178  179 1   
   180  178  180 1   
   181  178  181 1   
   182  184  185 1   
   183  184  186 1   
   184  187  188 1   
   185  187  189 1   
   186  190  191 1   
   187  190  192 1   
   188  193  194 1   
   189  193  195 1   
   190  196  197 1   
   191  196  198 1   
@<TRIPOS>SUBSTRUCTURE
     1 MOL         1 TEMP              0 ****  ****    0 ROOT
