@<TRIPOS>MOLECULE
MOL
  186   183     1     0     0
SMALL
resp


@<TRIPOS>ATOM
      1 C1         12.2160    4.4820   -3.3510 c3        1 MOL     -0.296505
      2 C2         11.9500    3.4010   -2.3250 c         1 MOL      0.581647
      3 O1         12.4380    2.2850   -2.5360 o         1 MOL     -0.600617
      4 H1         11.4070    5.2130   -3.3270 hc        1 MOL      0.082758
      5 H2         13.1590    4.9780   -3.1220 hc        1 MOL      0.082758
      6 H3         12.2720    4.0350   -4.3440 hc        1 MOL      0.082758
      7 N1         11.2920    3.6580   -1.2240 n         1 MOL     -0.209768
      8 C3         11.1230    2.6560   -0.1050 c3        1 MOL     -0.162045
      9 C4          9.7280    2.1020   -0.3390 c         1 MOL      0.678409
     10 O2          8.7270    2.9030   -0.3610 o         1 MOL     -0.690350
     11 C5         11.2500    3.2520    1.2920 c3        1 MOL      0.047043
     12 C6         10.8270    4.7220    1.3060 c         1 MOL      0.655513
     13 O3          9.6330    4.9800    1.2220 o         1 MOL     -0.695878
     14 O4         11.7200    5.5940    1.3510 o         1 MOL     -0.695878
     15 H4         10.7750    4.5210   -1.2680 hn        1 MOL      0.152328
     16 H5         11.8530    1.8540   -0.2490 h1        1 MOL      0.132705
     17 H6         12.2870    3.0490    1.5380 hc        1 MOL      0.018164
     18 H7         10.6490    2.6970    2.0110 hc        1 MOL      0.018164
     19 N2          9.6820    0.7980   -0.5790 n         1 MOL     -0.615351
     20 C7          8.4460    0.0960   -0.9530 c3        1 MOL      0.082606
     21 C8          7.4160    0.0490    0.1820 c         1 MOL      0.934818
     22 O5          7.8010   -0.2180    1.3280 o         1 MOL     -0.593108
     23 C9          8.8730   -1.3500   -1.3370 c3        1 MOL     -0.055824
     24 C10         7.9070   -2.2200   -2.0890 c3        1 MOL     -0.193781
     25 C11         8.4570   -3.4930   -2.7340 c3        1 MOL     -0.008231
     26 C12         9.3690   -4.3080   -1.8200 c3        1 MOL      0.108403
     27 N3          9.8900   -5.4750   -2.5960 n4        1 MOL     -0.288127
     28 H8         10.5050    0.2500   -0.3920 hn        1 MOL      0.293606
     29 H9          7.9360    0.7090   -1.6990 h1        1 MOL      0.071821
     30 H10         9.0730   -1.9430   -0.4470 hc        1 MOL      0.053253
     31 H11         9.7470   -1.1840   -1.9560 hc        1 MOL      0.053253
     32 H12         7.5370   -1.5950   -2.9030 hc        1 MOL      0.093897
     33 H13         7.1270   -2.5540   -1.4080 hc        1 MOL      0.093897
     34 H14         9.0810   -3.3570   -3.6150 hc        1 MOL      0.030727
     35 H15         7.6360   -4.1840   -2.9570 hc        1 MOL      0.030727
     36 H16         8.7430   -4.6960   -1.0170 hx        1 MOL      0.060963
     37 H17        10.1580   -3.7320   -1.3360 hx        1 MOL      0.060963
     38 H18        10.6010   -5.0940   -3.2020 hn        1 MOL      0.254139
     39 H19        10.4580   -6.0350   -1.9860 hn        1 MOL      0.254139
     40 H20         9.2010   -5.9460   -3.1670 hn        1 MOL      0.254139
     41 N4          6.1040   -0.0190   -0.1400 n         1 MOL     -0.999047
     42 C13         4.9470    0.0130    0.7560 c3        1 MOL      0.855006
     43 C14         3.8230   -1.0030    0.2790 c         1 MOL      0.164293
     44 O6          3.6890   -1.2790   -0.9360 o         1 MOL     -0.542601
     45 C15         4.3710    1.4400    0.7790 c3        1 MOL      0.077332
     46 C16         5.4940    2.5830    0.8000 c         1 MOL      0.444084
     47 O7          5.6830    3.3110   -0.2020 o         1 MOL     -0.696185
     48 O8          6.1000    2.9130    1.8490 o         1 MOL     -0.696185
     49 H21         5.8670   -0.1800   -1.1090 hn        1 MOL      0.314228
     50 H22         5.1640   -0.3330    1.7560 h1        1 MOL     -0.118851
     51 H23         3.7450    1.4630    1.6730 hc        1 MOL     -0.030101
     52 H24         3.7770    1.6450   -0.1100 hc        1 MOL     -0.030101
     53 N5          3.0260   -1.6710    1.1260 n         1 MOL     -0.130022
     54 C17         2.9570   -1.6420    2.5310 c3        1 MOL     -0.440077
     55 C18         2.1900   -2.8530    3.0120 c         1 MOL      0.702584
     56 O9          2.1080   -3.9000    2.3140 o         1 MOL     -0.628493
     57 H25         2.3920   -2.3360    0.7060 hn        1 MOL      0.281667
     58 H26         2.4310   -0.7550    2.8820 h1        1 MOL      0.146993
     59 H27         3.9390   -1.6680    3.0020 h1        1 MOL      0.146993
     60 N6          1.4280   -2.7490    4.0550 n         1 MOL     -0.387427
     61 C19         0.7780   -3.8660    4.7370 c3        1 MOL     -0.029067
     62 C20        -0.3960   -4.4550    3.8980 c         1 MOL      0.683061
     63 O10        -1.3780   -3.7790    3.5430 o         1 MOL     -0.542279
     64 C21         0.2470   -3.3460    6.0690 c3        1 MOL     -0.259800
     65 C22        -0.2220   -4.4910    6.9120 c         1 MOL      0.756489
     66 O11         0.0560   -5.6460    6.6450 o         1 MOL     -0.657339
     67 O12        -0.9850   -4.2030    7.8810 o         1 MOL     -0.657339
     68 H28         1.3350   -1.8070    4.4170 hn        1 MOL      0.271279
     69 H29         1.6070   -4.5630    4.8070 h1        1 MOL      0.070103
     70 H30        -0.6230   -2.7010    5.9660 hc        1 MOL      0.078480
     71 H31         1.0460   -2.8500    6.6210 hc        1 MOL      0.078480
     72 N7         -0.0740   -5.6830    3.4070 n         1 MOL     -0.502182
     73 C23        -0.8250   -6.3660    2.3640 c3        1 MOL     -0.052988
     74 C24        -0.6860   -6.0290    0.8820 c         1 MOL      0.402161
     75 O13        -1.4800   -6.5840    0.1440 o         1 MOL     -0.562063
     76 H32         0.8570   -6.0600    3.5370 hn        1 MOL      0.305384
     77 H33        -1.8580   -6.1160    2.5990 h1        1 MOL      0.101966
     78 H34        -0.6880   -7.4480    2.4890 h1        1 MOL      0.101966
     79 N8          0.1850   -5.1350    0.4140 n         1 MOL     -0.201047
     80 C25         0.1960   -4.4970   -0.9410 c3        1 MOL      0.123980
     81 C26        -0.1670   -3.0060   -0.8960 c         1 MOL      0.143425
     82 O14         0.1340   -2.3310    0.1140 o         1 MOL     -0.456665
     83 C27         1.5190   -4.7180   -1.7100 c3        1 MOL      0.405959
     84 C28         2.1370   -6.1240   -1.6440 c3        1 MOL     -0.491805
     85 O15         1.2150   -4.4410   -3.1050 oh        1 MOL     -0.628782
     86 H35         0.9250   -4.8500    1.0370 hn        1 MOL      0.211506
     87 H36        -0.5780   -4.8830   -1.6030 h1        1 MOL      0.048787
     88 H37         2.2880   -4.0740   -1.2770 h1        1 MOL     -0.011933
     89 H38         2.0550   -4.1730   -3.4950 ho        1 MOL      0.383214
     90 H39         1.3060   -6.7190   -2.0090 hc        1 MOL      0.122104
     91 H40         3.0680   -6.0990   -2.2220 hc        1 MOL      0.122104
     92 H41         2.3170   -6.2900   -0.5870 hc        1 MOL      0.122104
     93 N9         -0.7080   -2.4650   -1.9890 n         1 MOL     -0.025487
     94 C29        -1.2630   -1.0500   -2.1350 c3        1 MOL     -0.143993
     95 C30        -2.8070   -0.9590   -1.9240 c         1 MOL      0.636854
     96 O16        -3.2710    0.1220   -1.5350 o         1 MOL     -0.552042
     97 C31        -0.9080   -0.2980   -3.4080 c3        1 MOL      0.239500
     98 C32         0.4730   -0.7570   -4.0040 c3        1 MOL     -0.066660
     99 C33        -0.9030    1.2440   -3.2090 c3        1 MOL     -0.353113
    100 C34         1.6430   -0.5030   -3.1270 c3        1 MOL      0.023976
    101 H42        -0.8920   -3.0750   -2.7750 hn        1 MOL      0.196494
    102 H43        -0.7840   -0.4960   -1.3290 h1        1 MOL      0.097235
    103 H44        -1.6070   -0.6060   -4.1960 hc        1 MOL     -0.044877
    104 H45         0.6310   -0.3050   -4.9830 hc        1 MOL     -0.014218
    105 H46         0.3550   -1.8250   -4.1790 hc        1 MOL     -0.014218
    106 H47        -0.4740    1.7770   -4.0610 hc        1 MOL      0.100282
    107 H48        -1.8950    1.6810   -3.0910 hc        1 MOL      0.100282
    108 H49        -0.4030    1.3930   -2.2460 hc        1 MOL      0.100282
    109 H50         1.6470    0.5030   -2.7240 hc        1 MOL     -0.005884
    110 H51         1.5720   -1.3140   -2.4060 hc        1 MOL     -0.005884
    111 H52         2.5520   -0.6730   -3.6940 hc        1 MOL     -0.005884
    112 N10        -3.6140   -2.0010   -2.2030 n         1 MOL     -0.556735
    113 C35        -4.9570   -2.1940   -1.5980 c3        1 MOL      0.067391
    114 C36        -6.0310   -2.0520   -2.6230 c         1 MOL      0.592285
    115 O17        -5.7880   -1.9520   -3.7960 o         1 MOL     -0.523569
    116 C37        -4.9830   -3.6380   -0.9490 c3        1 MOL      0.185124
    117 C38        -3.7140   -4.0050   -0.1890 c3        1 MOL     -0.192860
    118 O18        -6.0500   -3.5390    0.0910 oh        1 MOL     -0.675479
    119 H53        -3.2790   -2.7510   -2.8050 hn        1 MOL      0.269287
    120 H54        -5.0490   -1.4430   -0.8150 h1        1 MOL      0.130412
    121 H55        -5.1370   -4.4320   -1.6750 h1        1 MOL      0.043360
    122 H56        -6.1550   -4.3720    0.5420 ho        1 MOL      0.425350
    123 H57        -3.4770   -3.1690    0.4740 hc        1 MOL      0.089157
    124 H58        -4.0280   -4.9230    0.3040 hc        1 MOL      0.089157
    125 H59        -2.8760   -4.2900   -0.8270 hc        1 MOL      0.089157
    126 N11        -7.2150   -1.9870   -2.1300 n         1 MOL     -0.522027
    127 C39        -8.4560   -1.5910   -2.9450 c3        1 MOL     -0.133470
    128 C40        -8.6410   -0.1040   -2.8950 c         1 MOL      0.662889
    129 O19        -9.0230    0.4880   -3.9400 o         1 MOL     -0.580563
    130 C41        -9.6840   -2.3550   -2.5320 c3        1 MOL      0.518336
    131 C42       -10.2220   -2.1440   -1.1100 c3        1 MOL     -0.290712
    132 O20        -9.6640   -3.7730   -2.8070 oh        1 MOL     -0.622712
    133 H60        -7.3370   -2.1350   -1.1280 hn        1 MOL      0.310508
    134 H61        -8.2340   -1.8120   -3.9860 h1        1 MOL      0.102730
    135 H62       -10.5020   -1.9620   -3.1260 h1        1 MOL     -0.072180
    136 H63        -9.8880   -3.8520   -3.7360 ho        1 MOL      0.383082
    137 H64       -11.0830   -2.7880   -0.9530 hc        1 MOL      0.072165
    138 H65        -9.4940   -2.5680   -0.4120 hc        1 MOL      0.072165
    139 H66       -10.5750   -1.1170   -1.0190 hc        1 MOL      0.072165
    140 N12        -8.6030    0.5730   -1.7400 n         1 MOL     -0.383531
    141 C43        -8.8230    2.0100   -1.4450 c3        1 MOL      0.025140
    142 C44        -7.8490    2.7100   -0.4640 c         1 MOL      0.595061
    143 O21        -6.9660    2.1730    0.1020 o         1 MOL     -0.487777
    144 C45       -10.3300    2.1630   -1.0920 c3        1 MOL     -0.256977
    145 C46       -10.6140    1.7070    0.3240 c3        1 MOL      0.071400
    146 C47       -11.9610    2.1880    0.6810 c3        1 MOL     -0.067915
    147 C48       -12.3530    1.7220    2.0750 c3        1 MOL     -0.022444
    148 N13       -13.5180    0.7590    2.0410 n4        1 MOL     -0.207174
    149 H67        -8.2180    0.0330   -0.9780 hn        1 MOL      0.164389
    150 H68        -8.7010    2.4470   -2.4390 h1        1 MOL      0.100440
    151 H69       -10.8640    1.4690   -1.7510 hc        1 MOL      0.080694
    152 H70       -10.7010    3.1710   -1.2660 hc        1 MOL      0.080694
    153 H71        -9.8830    2.1410    1.0130 hc        1 MOL      0.022054
    154 H72       -10.6330    0.6210    0.3730 hc        1 MOL      0.022054
    155 H73       -12.7560    1.9870   -0.0480 hc        1 MOL      0.062173
    156 H74       -11.9020    3.2700    0.6000 hc        1 MOL      0.062173
    157 H75       -12.5820    2.5300    2.7750 hx        1 MOL      0.097762
    158 H76       -11.4330    1.2700    2.4710 hx        1 MOL      0.097762
    159 H77       -14.1410    0.9160    2.8200 hn        1 MOL      0.229675
    160 H78       -14.0030    0.7350    1.1650 hn        1 MOL      0.229675
    161 H79       -13.2270   -0.1680    2.3190 hn        1 MOL      0.229675
    162 N14        -8.0760    4.0320   -0.2910 n         1 MOL     -0.473181
    163 C49        -7.4230    4.9570    0.6280 c3        1 MOL      0.276769
    164 C50        -5.8950    4.6710    0.8330 c         1 MOL      0.298796
    165 O22        -5.4930    4.5450    2.0260 o         1 MOL     -0.484588
    166 C51        -7.7820    6.3910    0.3410 c3        1 MOL     -0.177506
    167 C52        -7.2180    7.2610    1.5030 c3        1 MOL     -0.175098
    168 C53        -8.2180    8.3600    2.0790 c         1 MOL      0.707765
    169 O23        -8.1340    9.4940    1.5980 o         1 MOL     -0.663637
    170 O24        -8.9970    8.1060    3.0730 o         1 MOL     -0.663637
    171 H80        -8.8770    4.3260   -0.8300 hn        1 MOL      0.213277
    172 H81        -7.8900    4.6030    1.5360 h1        1 MOL      0.035745
    173 H82        -8.8610    6.4110    0.4040 hc        1 MOL      0.060877
    174 H83        -7.4500    6.6880   -0.6510 hc        1 MOL      0.060877
    175 H84        -6.3440    7.7970    1.1530 hc        1 MOL      0.046805
    176 H85        -6.8410    6.6950    2.3570 hc        1 MOL      0.046805
    177 N15        -5.0400    4.5890   -0.2330 n         1 MOL     -0.236300
    178 C54        -5.2720    4.8830   -1.6320 c3        1 MOL     -0.026394
    179 H86        -5.5290    5.9360   -1.7440 h1        1 MOL      0.040958
    180 H87        -4.3690    4.6680   -2.2040 h1        1 MOL      0.040958
    181 H88        -6.0920    4.2680   -2.0030 h1        1 MOL      0.040958
    182 H89        -4.0600    4.5400   -0.0110 hn        1 MOL      0.251128
    183 Ca1         7.2880    5.1400    0.3020 Ca        1 MOL      1.686547
    184 O25         6.8090    5.8400    3.0550 oh        1 MOL     -0.836987
    185 H90         6.2220    6.5990    2.9920 ho        1 MOL      0.422758
    186 H91         6.4080    5.2740    3.7080 ho        1 MOL      0.422758
@<TRIPOS>BOND
     1    1    2 1   
     2    1    4 1   
     3    1    5 1   
     4    1    6 1   
     5    2    3 2   
     6    2    7 1   
     7    7    8 1   
     8    7   15 1   
     9    8    9 1   
    10    8   11 1   
    11    8   16 1   
    12    9   10 2   
    13    9   19 1   
    14   11   12 1   
    15   11   17 1   
    16   11   18 1   
    17   12   13 1   
    18   12   14 1   
    19   19   20 1   
    20   19   28 1   
    21   20   21 1   
    22   20   23 1   
    23   20   29 1   
    24   21   22 2   
    25   21   41 1   
    26   23   24 1   
    27   23   30 1   
    28   23   31 1   
    29   24   25 1   
    30   24   32 1   
    31   24   33 1   
    32   25   26 1   
    33   25   34 1   
    34   25   35 1   
    35   26   27 1   
    36   26   36 1   
    37   26   37 1   
    38   27   38 1   
    39   27   39 1   
    40   27   40 1   
    41   41   42 1   
    42   41   49 1   
    43   42   43 1   
    44   42   45 1   
    45   42   50 1   
    46   43   44 2   
    47   43   53 1   
    48   45   46 1   
    49   45   51 1   
    50   45   52 1   
    51   46   47 1   
    52   46   48 1   
    53   53   54 1   
    54   53   57 1   
    55   54   55 1   
    56   54   58 1   
    57   54   59 1   
    58   55   56 2   
    59   55   60 1   
    60   60   61 1   
    61   60   68 1   
    62   61   62 1   
    63   61   64 1   
    64   61   69 1   
    65   62   63 2   
    66   62   72 1   
    67   64   65 1   
    68   64   70 1   
    69   64   71 1   
    70   65   66 1   
    71   65   67 1   
    72   72   73 1   
    73   72   76 1   
    74   73   74 1   
    75   73   77 1   
    76   73   78 1   
    77   74   75 2   
    78   74   79 1   
    79   79   80 1   
    80   79   86 1   
    81   80   81 1   
    82   80   83 1   
    83   80   87 1   
    84   81   82 2   
    85   81   93 1   
    86   83   84 1   
    87   83   85 1   
    88   83   88 1   
    89   84   90 1   
    90   84   91 1   
    91   84   92 1   
    92   85   89 1   
    93   93   94 1   
    94   93  101 1   
    95   94   95 1   
    96   94   97 1   
    97   94  102 1   
    98   95   96 2   
    99   95  112 1   
   100   97   98 1   
   101   97   99 1   
   102   97  103 1   
   103   98  100 1   
   104   98  104 1   
   105   98  105 1   
   106   99  106 1   
   107   99  107 1   
   108   99  108 1   
   109  100  109 1   
   110  100  110 1   
   111  100  111 1   
   112  112  113 1   
   113  112  119 1   
   114  113  114 1   
   115  113  116 1   
   116  113  120 1   
   117  114  115 2   
   118  114  126 1   
   119  116  117 1   
   120  116  118 1   
   121  116  121 1   
   122  117  123 1   
   123  117  124 1   
   124  117  125 1   
   125  118  122 1   
   126  126  127 1   
   127  126  133 1   
   128  127  128 1   
   129  127  130 1   
   130  127  134 1   
   131  128  129 2   
   132  128  140 1   
   133  130  131 1   
   134  130  132 1   
   135  130  135 1   
   136  131  137 1   
   137  131  138 1   
   138  131  139 1   
   139  132  136 1   
   140  140  141 1   
   141  140  149 1   
   142  141  142 1   
   143  141  144 1   
   144  141  150 1   
   145  142  143 2   
   146  142  162 1   
   147  144  145 1   
   148  144  151 1   
   149  144  152 1   
   150  145  146 1   
   151  145  153 1   
   152  145  154 1   
   153  146  147 1   
   154  146  155 1   
   155  146  156 1   
   156  147  148 1   
   157  147  157 1   
   158  147  158 1   
   159  148  159 1   
   160  148  160 1   
   161  148  161 1   
   162  162  163 1   
   163  162  171 1   
   164  163  164 1   
   165  163  166 1   
   166  163  172 1   
   167  164  165 2   
   168  164  177 1   
   169  166  167 1   
   170  166  173 1   
   171  166  174 1   
   172  167  168 1   
   173  167  175 1   
   174  167  176 1   
   175  168  169 1   
   176  168  170 1   
   177  177  178 1   
   178  177  182 1   
   179  178  179 1   
   180  178  180 1   
   181  178  181 1   
   182  184  185 1   
   183  184  186 1   
@<TRIPOS>SUBSTRUCTURE
     1 MOL         1 TEMP              0 ****  ****    0 ROOT
