@<TRIPOS>MOLECULE
MOL
  207   197     1     0     0
SMALL
resp


@<TRIPOS>ATOM
      1 C1         -9.3980   -1.6330   -6.4910 c3        1 MOL     -0.296473
      2 C2         -9.1150   -0.9360   -5.1690 c         1 MOL      0.750215
      3 O1         -9.8890   -0.1030   -4.6510 o         1 MOL     -0.625072
      4 H1        -10.3180   -2.2120   -6.4070 hc        1 MOL      0.077341
      5 H2         -9.5080   -0.8870   -7.2790 hc        1 MOL      0.077341
      6 H3         -8.5710   -2.2990   -6.7350 hc        1 MOL      0.077341
      7 N1         -7.9890   -1.2740   -4.4930 n         1 MOL     -0.799675
      8 C3         -7.7670   -0.9880   -3.0430 c3        1 MOL      0.668191
      9 C4         -6.2370   -0.9060   -2.8380 c         1 MOL      0.288218
     10 O2         -5.3940   -1.3360   -3.6520 o         1 MOL     -0.515698
     11 C5         -8.4620   -1.9980   -2.0950 c3        1 MOL     -0.259396
     12 C6         -8.1800   -3.5020   -2.2670 c         1 MOL      0.777157
     13 O3         -7.4850   -3.9180   -3.2190 o         1 MOL     -0.739548
     14 O4         -8.7510   -4.3470   -1.5440 o         1 MOL     -0.739548
     15 H4         -7.3830   -1.9740   -4.8770 hn        1 MOL      0.362192
     16 H5         -8.1520   -0.0030   -2.8050 h1        1 MOL     -0.090895
     17 H6         -9.5120   -1.7840   -2.2990 hc        1 MOL      0.014047
     18 H7         -8.1470   -1.6940   -1.0970 hc        1 MOL      0.014047
     19 N2         -5.8510   -0.2470   -1.7370 n         1 MOL     -0.387195
     20 C7         -4.5240    0.0170   -1.2490 c3        1 MOL      0.239224
     21 C8         -4.3680   -0.4000    0.2550 c         1 MOL      0.462731
     22 O5         -5.2890   -0.3330    1.0240 o         1 MOL     -0.492941
     23 C9         -4.1380    1.5400   -1.3420 c3        1 MOL     -0.424062
     24 C10        -3.9920    2.0310   -2.7670 c3        1 MOL      0.007909
     25 C11        -3.3600    3.4260   -2.9240 c3        1 MOL     -0.146132
     26 C12        -4.2340    4.4620   -2.2380 c3        1 MOL     -0.293684
     27 N3         -3.7190    5.8460   -2.4050 n4        1 MOL     -0.248003
     28 H8         -6.5580    0.1390   -1.1400 hn        1 MOL      0.243575
     29 H9         -3.8350   -0.4610   -1.9490 h1        1 MOL      0.060456
     30 H10        -3.1540    1.7010   -0.8980 hc        1 MOL      0.143457
     31 H11        -4.8550    2.1590   -0.8090 hc        1 MOL      0.143457
     32 H12        -4.8650    1.9380   -3.4180 hc        1 MOL      0.059966
     33 H13        -3.2480    1.3110   -3.1150 hc        1 MOL      0.059966
     34 H14        -3.3330    3.6080   -3.9940 hc        1 MOL      0.096976
     35 H15        -2.4120    3.5570   -2.3880 hc        1 MOL      0.096976
     36 H16        -4.3780    4.2080   -1.1850 hx        1 MOL      0.182560
     37 H17        -5.2480    4.3690   -2.6410 hx        1 MOL      0.182560
     38 H18        -2.8730    5.9610   -1.8600 hn        1 MOL      0.293799
     39 H19        -3.3890    6.0500   -3.3360 hn        1 MOL      0.293799
     40 H20        -4.4060    6.5430   -2.1650 hn        1 MOL      0.293799
     41 N4         -3.1390   -0.4580    0.7300 n         1 MOL     -0.555390
     42 C13        -2.8180   -0.1810    2.1530 c3        1 MOL      0.450190
     43 C14        -1.2440    0.1920    2.3040 c         1 MOL      0.319933
     44 O6         -0.4150   -0.3230    1.5660 o         1 MOL     -0.456001
     45 C15        -3.2660   -1.3180    3.1120 c3        1 MOL     -0.267755
     46 C16        -2.9990   -2.7740    2.6670 c         1 MOL      0.733937
     47 O7         -1.8750   -3.2570    2.4470 o         1 MOL     -0.735497
     48 O8         -4.0080   -3.5310    2.4380 o         1 MOL     -0.735497
     49 H21        -2.3500   -0.6190    0.1270 hn        1 MOL      0.276746
     50 H22        -3.2290    0.7650    2.4880 h1        1 MOL      0.015356
     51 H23        -4.3360   -1.2630    3.3150 hc        1 MOL      0.038227
     52 H24        -2.7200   -1.2280    4.0470 hc        1 MOL      0.038227
     53 N5         -0.7470    0.9630    3.3280 n         1 MOL     -0.328842
     54 C17        -1.4420    1.8610    4.2710 c3        1 MOL     -0.227460
     55 C18        -1.7130    3.2870    3.6920 c         1 MOL      0.589585
     56 O9         -2.0490    3.4830    2.5390 o         1 MOL     -0.613378
     57 H25         0.2430    0.7770    3.4210 hn        1 MOL      0.277012
     58 H26        -0.9440    1.8800    5.2330 h1        1 MOL      0.113692
     59 H27        -2.3340    1.2630    4.4570 h1        1 MOL      0.113692
     60 N6         -1.4690    4.2930    4.5110 n         1 MOL     -0.256321
     61 C19        -1.6870    5.7750    4.2160 c3        1 MOL     -0.216313
     62 C20        -0.5490    6.4200    3.5130 c         1 MOL      0.523337
     63 O10        -0.6930    7.6040    3.1310 o         1 MOL     -0.481571
     64 C21        -2.0140    6.4790    5.5820 c3        1 MOL     -0.212092
     65 C22        -1.0650    6.3080    6.7770 c         1 MOL      0.769946
     66 O11        -1.4550    6.8970    7.8180 o         1 MOL     -0.713324
     67 O12         0.0200    5.7380    6.6590 o         1 MOL     -0.713324
     68 H28        -1.1950    4.0680    5.4640 hn        1 MOL      0.183621
     69 H29        -2.6440    5.7690    3.6980 h1        1 MOL      0.169331
     70 H30        -3.0780    6.3280    5.7720 hc        1 MOL      0.066853
     71 H31        -1.9440    7.5240    5.2560 hc        1 MOL      0.066853
     72 N7          0.5910    5.7100    3.2260 n         1 MOL     -0.248181
     73 C23         1.8050    6.2350    2.5030 c3        1 MOL     -0.126043
     74 C24         1.7400    6.3960    0.9920 c         1 MOL      0.367911
     75 O13         2.5470    5.9660    0.1670 o         1 MOL     -0.466849
     76 H32         0.5730    4.7570    3.5520 hn        1 MOL      0.198099
     77 H33         2.6170    5.5350    2.6960 h1        1 MOL      0.122502
     78 H34         2.0500    7.2330    2.8460 h1        1 MOL      0.122502
     79 N8          0.7710    7.2490    0.5630 n         1 MOL     -0.090240
     80 C25         0.6000    7.5510   -0.8370 c3        1 MOL     -0.379377
     81 C26         0.1950    6.3110   -1.6140 c         1 MOL      0.374470
     82 O14        -0.9670    5.9060   -1.5760 o         1 MOL     -0.434475
     83 C27        -0.2520    8.7320   -1.0250 c3        1 MOL      0.353580
     84 C28        -1.6990    8.6880   -0.4540 c3        1 MOL     -0.179831
     85 O15         0.3160    9.8140   -0.3020 oh        1 MOL     -0.572821
     86 H35         0.2220    7.6230    1.3250 hn        1 MOL      0.174412
     87 H36         1.5990    7.8980   -1.0890 h1        1 MOL      0.131320
     88 H37        -0.3970    9.0810   -2.0470 h1        1 MOL     -0.003229
     89 H38         1.1710    9.9890   -0.6910 ho        1 MOL      0.372171
     90 H39        -1.6580    8.2230    0.5290 hc        1 MOL      0.060245
     91 H40        -2.0710    9.7140   -0.4230 hc        1 MOL      0.060245
     92 H41        -2.2710    8.0450   -1.1190 hc        1 MOL      0.060245
     93 N9          1.1380    5.7140   -2.3590 n         1 MOL     -0.145576
     94 C29         0.9900    4.4180   -3.0620 c3        1 MOL      0.045381
     95 C30         1.5070    3.2510   -2.1810 c         1 MOL      0.465744
     96 O16         1.0540    2.1270   -2.1150 o         1 MOL     -0.520743
     97 C31         1.6770    4.4020   -4.4800 c3        1 MOL      0.220342
     98 C32         1.4180    5.5560   -5.3300 c3        1 MOL     -0.276627
     99 C33         1.2110    3.1050   -5.1810 c3        1 MOL     -0.340680
    100 C34        -0.0450    5.9610   -5.6830 c3        1 MOL     -0.122819
    101 H42         2.0410    6.1640   -2.3930 hn        1 MOL      0.221725
    102 H43        -0.0830    4.2570   -3.2010 h1        1 MOL     -0.011861
    103 H44         2.7430    4.2670   -4.2690 hc        1 MOL     -0.032843
    104 H45         1.9100    5.2710   -6.2570 hc        1 MOL      0.086729
    105 H46         1.8630    6.4410   -4.8630 hc        1 MOL      0.086729
    106 H47         1.3490    3.1730   -6.2690 hc        1 MOL      0.105735
    107 H48         1.7740    2.2700   -4.7690 hc        1 MOL      0.105735
    108 H49         0.1350    3.0360   -5.0060 hc        1 MOL      0.105735
    109 H50        -0.5940    5.9870   -4.7400 hc        1 MOL      0.041253
    110 H51        -0.0990    6.8880   -6.2450 hc        1 MOL      0.041253
    111 H52        -0.4250    5.0860   -6.1980 hc        1 MOL      0.041253
    112 N10         2.6800    3.4670   -1.5400 n         1 MOL     -0.230166
    113 C35         3.4000    2.5180   -0.6540 c3        1 MOL     -0.078756
    114 C36         4.8810    2.4830   -0.9010 c         1 MOL      0.472067
    115 O17         5.4730    3.5260   -1.3090 o         1 MOL     -0.531830
    116 C37         3.1500    2.8760    0.7890 c3        1 MOL      0.629973
    117 C38         1.6800    2.6950    1.2870 c3        1 MOL     -0.530031
    118 O18         3.8640    2.1260    1.6590 oh        1 MOL     -0.696011
    119 H53         3.1240    4.3620   -1.7090 hn        1 MOL      0.166861
    120 H54         3.0970    1.4760   -0.7890 h1        1 MOL      0.100176
    121 H55         3.4860    3.9050    0.9370 h1        1 MOL     -0.104856
    122 H56         3.6910    2.5030    2.5280 ho        1 MOL      0.400325
    123 H57         1.4700    1.6300    1.1900 hc        1 MOL      0.138140
    124 H58         1.7020    3.0430    2.3170 hc        1 MOL      0.138140
    125 H59         1.0960    3.3510    0.6480 hc        1 MOL      0.138140
    126 N11         5.6120    1.3880   -0.6280 n         1 MOL     -0.415851
    127 C39         7.0140    1.2530   -0.9170 c3        1 MOL      0.002638
    128 C40         7.3110   -0.1310   -1.3370 c         1 MOL      0.677591
    129 O19         7.5740   -0.3190   -2.4970 o         1 MOL     -0.576418
    130 C41         7.8430    1.7670    0.2400 c3        1 MOL      0.266191
    131 C42         9.3330    1.9140    0.0120 c3        1 MOL     -0.290168
    132 O20         7.7460    0.9000    1.3030 oh        1 MOL     -0.589276
    133 H60         5.1160    0.6420   -0.1500 hn        1 MOL      0.239799
    134 H61         7.3430    1.7860   -1.8080 h1        1 MOL      0.092075
    135 H62         7.4170    2.6960    0.6140 h1        1 MOL      0.047326
    136 H63         7.0120    1.2510    1.8160 ho        1 MOL      0.384374
    137 H64         9.7310    0.9570   -0.3180 hc        1 MOL      0.079707
    138 H65         9.5170    2.6110   -0.8100 hc        1 MOL      0.079707
    139 H66         9.8490    2.2570    0.9100 hc        1 MOL      0.079707
    140 N12         7.0700   -1.2210   -0.5340 n         1 MOL     -0.516189
    141 C43         7.1440   -2.6280   -1.0150 c3        1 MOL     -0.130917
    142 C44         6.1120   -3.5550   -0.4490 c         1 MOL      0.742036
    143 O21         6.0310   -3.7380    0.7620 o         1 MOL     -0.541108
    144 C45         8.5290   -3.1580   -0.7090 c3        1 MOL     -0.109956
    145 C46         8.9180   -4.5170   -1.3160 c3        1 MOL     -0.050088
    146 C47        10.1810   -4.9540   -0.5250 c3        1 MOL     -0.108279
    147 C48        10.8730   -6.1030   -1.2900 c3        1 MOL      0.208871
    148 N13        11.9920   -6.6140   -0.5290 n4        1 MOL     -0.357157
    149 H67         6.8930   -0.9920    0.4380 hn        1 MOL      0.287863
    150 H68         6.9880   -2.5280   -2.0920 h1        1 MOL      0.119189
    151 H69         8.5270   -3.3080    0.3710 hc        1 MOL      0.076574
    152 H70         9.3270   -2.4400   -0.8990 hc        1 MOL      0.076574
    153 H71         9.1250   -4.4550   -2.3900 hc        1 MOL      0.057219
    154 H72         8.1640   -5.2380   -1.0210 hc        1 MOL      0.057219
    155 H73         9.7470   -5.3340    0.3990 hc        1 MOL      0.050864
    156 H74        10.9060   -4.1550   -0.3660 hc        1 MOL      0.050864
    157 H75        11.3110   -5.5620   -2.1230 hx        1 MOL      0.022705
    158 H76        10.1560   -6.8560   -1.6400 hx        1 MOL      0.022705
    159 H77        12.4240   -7.4070   -0.9900 hn        1 MOL      0.266835
    160 H78        12.6780   -5.8970   -0.3760 hn        1 MOL      0.266835
    161 H79        11.5980   -6.9500    0.3370 hn        1 MOL      0.266835
    162 N14         5.4240   -4.1600   -1.3120 n         1 MOL     -0.610864
    163 C49         4.3460   -5.0180   -0.9280 c3        1 MOL     -0.003558
    164 C50         3.1810   -4.1810   -0.4360 c         1 MOL      0.363536
    165 O22         2.6730   -4.4220    0.6320 o         1 MOL     -0.463592
    166 C51         3.9640   -5.9930   -2.0720 c3        1 MOL      0.446595
    167 C52         3.1830   -7.2430   -1.6000 c3        1 MOL     -0.499631
    168 C53         3.9320   -8.1640   -0.5840 c         1 MOL      0.728978
    169 O23         3.3800   -8.4750    0.4860 o         1 MOL     -0.660222
    170 O24         5.1320   -8.5830   -0.6650 o         1 MOL     -0.660222
    171 H80         5.6450   -4.1410   -2.2940 hn        1 MOL      0.300671
    172 H81         4.7580   -5.5800   -0.0950 h1        1 MOL      0.138445
    173 H82         4.8580   -6.3800   -2.5620 hc        1 MOL     -0.110406
    174 H83         3.3780   -5.4550   -2.8090 hc        1 MOL     -0.110406
    175 H84         3.0070   -7.8760   -2.4770 hc        1 MOL      0.111310
    176 H85         2.2460   -6.9020   -1.1640 hc        1 MOL      0.111310
    177 N15         2.6710   -3.1510   -1.1200 n         1 MOL     -0.278794
    178 C54         2.7280   -2.9040   -2.5420 c3        1 MOL     -0.084246
    179 H86         1.9070   -3.4250   -3.0340 h1        1 MOL      0.062299
    180 H87         2.6430   -1.8340   -2.7300 h1        1 MOL      0.062299
    181 H88         3.6760   -3.2690   -2.9370 h1        1 MOL      0.062299
    182 H89         1.9720   -2.6110   -0.6220 hn        1 MOL      0.270420
    183 Ca1        -4.1340   -6.0670    2.4320 Ca        1 MOL      1.725347
    184 O25        -2.6140   -5.3010    0.0400 oh        1 MOL     -0.806056
    185 H90        -2.2380   -4.4890    0.3980 ho        1 MOL      0.408871
    186 H91        -2.6840   -5.1450   -0.8940 ho        1 MOL      0.408871
    187 O26        -2.8260   -8.0920    1.1430 oh        1 MOL     -0.806056
    188 H92        -3.2170   -8.1770    0.2720 ho        1 MOL      0.408871
    189 H93        -2.6700   -8.9960    1.4160 ho        1 MOL      0.408871
    190 O27        -3.6560   -8.1430    4.2550 oh        1 MOL     -0.806056
    191 H94        -2.8440   -8.5870    4.4980 ho        1 MOL      0.408871
    192 H95        -4.3270   -8.5650    4.7850 ho        1 MOL      0.408871
    193 O28        -1.3440   -6.0560    3.1860 oh        1 MOL     -0.806056
    194 H96        -0.8410   -5.9990    3.9890 ho        1 MOL      0.408871
    195 H97        -0.8500   -5.5370    2.5550 ho        1 MOL      0.408871
    196 O29        -5.7270   -5.4570    0.4200 oh        1 MOL     -0.806056
    197 H98        -5.5290   -5.2140   -0.4840 ho        1 MOL      0.408871
    198 H99        -6.5180   -6.0030    0.3510 ho        1 MOL      0.408871
    199 O30        -5.6110   -8.3230    1.5290 oh        1 MOL     -0.806056
    200 H100       -6.2490   -8.8310    2.0430 ho        1 MOL      0.408871
    201 H101       -5.6480   -8.7000    0.6520 ho        1 MOL      0.408871
    202 O31        -3.5420   -5.2930    5.0340 oh        1 MOL     -0.806056
    203 H102       -3.3970   -4.4040    5.3440 ho        1 MOL      0.408871
    204 H103       -2.8080   -5.7940    5.3650 ho        1 MOL      0.408871
    205 O32        -6.4900   -6.3150    3.9080 oh        1 MOL     -0.806056
    206 H104       -6.3520   -5.9700    4.7900 ho        1 MOL      0.408871
    207 H105       -7.2940   -6.8280    3.9750 ho        1 MOL      0.408871
@<TRIPOS>BOND
     1    1    2 1   
     2    1    4 1   
     3    1    5 1   
     4    1    6 1   
     5    2    3 2   
     6    2    7 1   
     7    7    8 1   
     8    7   15 1   
     9    8    9 1   
    10    8   11 1   
    11    8   16 1   
    12    9   10 2   
    13    9   19 1   
    14   11   12 1   
    15   11   17 1   
    16   11   18 1   
    17   12   13 1   
    18   12   14 1   
    19   19   20 1   
    20   19   28 1   
    21   20   21 1   
    22   20   23 1   
    23   20   29 1   
    24   21   22 2   
    25   21   41 1   
    26   23   24 1   
    27   23   30 1   
    28   23   31 1   
    29   24   25 1   
    30   24   32 1   
    31   24   33 1   
    32   25   26 1   
    33   25   34 1   
    34   25   35 1   
    35   26   27 1   
    36   26   36 1   
    37   26   37 1   
    38   27   38 1   
    39   27   39 1   
    40   27   40 1   
    41   41   42 1   
    42   41   49 1   
    43   42   43 1   
    44   42   45 1   
    45   42   50 1   
    46   43   44 2   
    47   43   53 1   
    48   45   46 1   
    49   45   51 1   
    50   45   52 1   
    51   46   47 1   
    52   46   48 1   
    53   53   54 1   
    54   53   57 1   
    55   54   55 1   
    56   54   58 1   
    57   54   59 1   
    58   55   56 2   
    59   55   60 1   
    60   60   61 1   
    61   60   68 1   
    62   61   62 1   
    63   61   64 1   
    64   61   69 1   
    65   62   63 2   
    66   62   72 1   
    67   64   65 1   
    68   64   70 1   
    69   64   71 1   
    70   65   66 1   
    71   65   67 1   
    72   72   73 1   
    73   72   76 1   
    74   73   74 1   
    75   73   77 1   
    76   73   78 1   
    77   74   75 2   
    78   74   79 1   
    79   79   80 1   
    80   79   86 1   
    81   80   81 1   
    82   80   83 1   
    83   80   87 1   
    84   81   82 2   
    85   81   93 1   
    86   83   84 1   
    87   83   85 1   
    88   83   88 1   
    89   84   90 1   
    90   84   91 1   
    91   84   92 1   
    92   85   89 1   
    93   93   94 1   
    94   93  101 1   
    95   94   95 1   
    96   94   97 1   
    97   94  102 1   
    98   95   96 2   
    99   95  112 1   
   100   97   98 1   
   101   97   99 1   
   102   97  103 1   
   103   98  100 1   
   104   98  104 1   
   105   98  105 1   
   106   99  106 1   
   107   99  107 1   
   108   99  108 1   
   109  100  109 1   
   110  100  110 1   
   111  100  111 1   
   112  112  113 1   
   113  112  119 1   
   114  113  114 1   
   115  113  116 1   
   116  113  120 1   
   117  114  115 2   
   118  114  126 1   
   119  116  117 1   
   120  116  118 1   
   121  116  121 1   
   122  117  123 1   
   123  117  124 1   
   124  117  125 1   
   125  118  122 1   
   126  126  127 1   
   127  126  133 1   
   128  127  128 1   
   129  127  130 1   
   130  127  134 1   
   131  128  129 2   
   132  128  140 1   
   133  130  131 1   
   134  130  132 1   
   135  130  135 1   
   136  131  137 1   
   137  131  138 1   
   138  131  139 1   
   139  132  136 1   
   140  140  141 1   
   141  140  149 1   
   142  141  142 1   
   143  141  144 1   
   144  141  150 1   
   145  142  143 2   
   146  142  162 1   
   147  144  145 1   
   148  144  151 1   
   149  144  152 1   
   150  145  146 1   
   151  145  153 1   
   152  145  154 1   
   153  146  147 1   
   154  146  155 1   
   155  146  156 1   
   156  147  148 1   
   157  147  157 1   
   158  147  158 1   
   159  148  159 1   
   160  148  160 1   
   161  148  161 1   
   162  162  163 1   
   163  162  171 1   
   164  163  164 1   
   165  163  166 1   
   166  163  172 1   
   167  164  165 2   
   168  164  177 1   
   169  166  167 1   
   170  166  173 1   
   171  166  174 1   
   172  167  168 1   
   173  167  175 1   
   174  167  176 1   
   175  168  169 1   
   176  168  170 1   
   177  177  178 1   
   178  177  182 1   
   179  178  179 1   
   180  178  180 1   
   181  178  181 1   
   182  184  185 1   
   183  184  186 1   
   184  187  188 1   
   185  187  189 1   
   186  190  191 1   
   187  190  192 1   
   188  193  194 1   
   189  193  195 1   
   190  196  197 1   
   191  196  198 1   
   192  199  200 1   
   193  199  201 1   
   194  202  203 1   
   195  202  204 1   
   196  205  206 1   
   197  205  207 1   
@<TRIPOS>SUBSTRUCTURE
     1 MOL         1 TEMP              0 ****  ****    0 ROOT
