@<TRIPOS>MOLECULE
MOL
  192   187     1     0     0
SMALL
resp


@<TRIPOS>ATOM
      1 C1         -7.0870   -2.1420    4.8700 c3        1 MOL     -0.276176
      2 C2         -6.3510   -1.7660    3.5730 c         1 MOL      0.709601
      3 O1         -6.1240   -2.5920    2.6890 o         1 MOL     -0.605414
      4 H1         -7.6630   -1.2870    5.2220 hc        1 MOL      0.073145
      5 H2         -7.7590   -2.9780    4.6770 hc        1 MOL      0.073145
      6 H3         -6.3600   -2.4270    5.6310 hc        1 MOL      0.073145
      7 N1         -5.9160   -0.5010    3.3580 n         1 MOL     -0.530332
      8 C3         -5.4390    0.0370    2.0800 c3        1 MOL      0.448244
      9 C4         -3.9370   -0.0510    1.8280 c         1 MOL      0.041911
     10 O2         -3.5570    0.2770    0.6910 o         1 MOL     -0.042757
     11 C5         -5.7870    1.5820    2.0520 c3        1 MOL     -0.294238
     12 C6         -7.0940    1.9700    2.6970 c         1 MOL      0.672147
     13 O3         -7.8220    2.8490    2.1500 o         1 MOL     -0.669313
     14 O4         -7.4440    1.6730    3.8780 o         1 MOL     -0.669313
     15 H4         -6.0890    0.1770    4.0830 hn        1 MOL      0.222291
     16 H5         -5.9400   -0.4240    1.2330 h1        1 MOL      0.043500
     17 H6         -5.8330    1.8930    1.0130 hc        1 MOL      0.031778
     18 H7         -5.0100    2.2200    2.4910 hc        1 MOL      0.031778
     19 N2         -3.1120   -0.4160    2.8290 n         1 MOL     -0.435908
     20 C7         -1.6190   -0.5790    2.6360 c3        1 MOL      0.479580
     21 C8         -1.1780   -2.0150    2.1820 c         1 MOL      0.242660
     22 O5         -1.8080   -3.0200    2.5370 o         1 MOL     -0.477562
     23 C9         -0.9690   -0.1700    3.9940 c3        1 MOL     -0.420552
     24 C10        -1.0390    1.3580    4.1840 c3        1 MOL      0.015007
     25 C11        -0.7880    1.8430    5.6060 c3        1 MOL     -0.048626
     26 C12        -0.6380    3.3280    5.7970 c3        1 MOL      0.010400
     27 N3         -1.6530    4.1700    5.0440 n4        1 MOL     -0.381795
     28 H8         -3.4310   -0.7190    3.7420 hn        1 MOL      0.282742
     29 H9         -1.2330    0.1300    1.9030 h1        1 MOL     -0.092079
     30 H10         0.0930   -0.4040    4.0560 hc        1 MOL      0.129397
     31 H11        -1.5410   -0.5830    4.8310 hc        1 MOL      0.129397
     32 H12        -2.0010    1.7280    3.8380 hc        1 MOL      0.071401
     33 H13        -0.2920    1.7610    3.5020 hc        1 MOL      0.071401
     34 H14         0.1270    1.4090    6.0330 hc        1 MOL      0.054013
     35 H15        -1.6680    1.6000    6.1940 hc        1 MOL      0.054013
     36 H16         0.3820    3.5570    5.4820 hx        1 MOL      0.090376
     37 H17        -0.6900    3.4370    6.8750 hx        1 MOL      0.090376
     38 H18        -1.6390    4.1480    4.0360 hn        1 MOL      0.323598
     39 H19        -2.5880    3.8540    5.2150 hn        1 MOL      0.323598
     40 H20        -1.4440    5.1420    5.2310 hn        1 MOL      0.323598
     41 N4         -0.1230   -2.1830    1.4500 n         1 MOL     -0.061836
     42 C13         0.7330   -1.2920    0.7130 c3        1 MOL     -0.215308
     43 C14         1.4450   -0.1500    1.5330 c         1 MOL      0.685985
     44 O6          0.9970    0.9800    1.5230 o         1 MOL     -0.564864
     45 C15         0.0510   -0.7910   -0.5020 c3        1 MOL     -0.539024
     46 C16        -0.0130   -1.7740   -1.6830 c         1 MOL      0.901600
     47 O7          0.4520   -2.9300   -1.4870 o         1 MOL     -0.770934
     48 O8         -0.5000   -1.3490   -2.7510 o         1 MOL     -0.770934
     49 H21         0.0240   -3.1240    1.1270 hn        1 MOL      0.121525
     50 H22         1.6000   -1.8410    0.3480 h1        1 MOL      0.079957
     51 H23         0.5990    0.0590   -0.9090 hc        1 MOL      0.253923
     52 H24        -0.9470   -0.4950   -0.1670 hc        1 MOL      0.253923
     53 N5          2.5700   -0.3960    2.2310 n         1 MOL     -0.655899
     54 C17         3.2800   -1.6560    2.3020 c3        1 MOL      0.364437
     55 C18         4.3800   -1.7790    3.4160 c         1 MOL      0.379147
     56 O9          4.5320   -0.9270    4.2810 o         1 MOL     -0.488829
     57 H25         3.1220    0.4040    2.5210 hn        1 MOL      0.358835
     58 H26         3.6960   -1.9280    1.3320 h1        1 MOL     -0.027185
     59 H27         2.5170   -2.3930    2.5630 h1        1 MOL     -0.027185
     60 N6          5.1780   -2.8790    3.4220 n         1 MOL     -0.400578
     61 C19         5.4560   -3.7240    2.2730 c3        1 MOL      0.057246
     62 C20         6.3130   -2.8690    1.2610 c         1 MOL      0.417258
     63 O10         6.9260   -1.8080    1.5530 o         1 MOL     -0.405957
     64 C21         6.2840   -4.9610    2.8330 c3        1 MOL     -0.138492
     65 C22         7.4490   -4.7310    3.8060 c         1 MOL      0.697371
     66 O11         8.6020   -4.5790    3.2920 o         1 MOL     -0.659624
     67 O12         7.1730   -4.6840    5.0420 o         1 MOL     -0.659624
     68 H28         5.7670   -3.0100    4.2370 hn        1 MOL      0.304054
     69 H29         4.5200   -4.0750    1.8590 h1        1 MOL      0.004895
     70 H30         6.6440   -5.5700    2.0150 hc        1 MOL      0.001757
     71 H31         5.5020   -5.4510    3.4120 hc        1 MOL      0.001757
     72 N7          6.3470   -3.3590   -0.0180 n         1 MOL     -0.182268
     73 C23         7.1780   -2.9310   -1.1420 c3        1 MOL     -0.427276
     74 C24         6.7800   -1.5710   -1.7440 c         1 MOL      0.559457
     75 O13         7.5140   -0.7830   -2.2450 o         1 MOL     -0.521785
     76 H32         5.7380   -4.1500   -0.1930 hn        1 MOL      0.173053
     77 H33         7.0990   -3.6730   -1.9240 h1        1 MOL      0.189787
     78 H34         8.2200   -2.8890   -0.8260 h1        1 MOL      0.189787
     79 N8          5.4710   -1.2820   -1.7140 n         1 MOL     -0.392681
     80 C25         4.9630   -0.0130   -2.3000 c3        1 MOL     -0.017242
     81 C26         5.2100    1.0840   -1.3020 c         1 MOL      0.498990
     82 O14         5.1940    0.9620   -0.0540 o         1 MOL     -0.503215
     83 C27         3.4590   -0.0300   -2.6550 c3        1 MOL      0.381270
     84 C28         3.1290   -1.0250   -3.7150 c3        1 MOL     -0.451823
     85 O15         3.0930    1.1950   -3.1790 oh        1 MOL     -0.598931
     86 H35         4.9110   -2.0610   -1.3800 hn        1 MOL      0.218643
     87 H36         5.4610    0.2500   -3.2330 h1        1 MOL      0.087967
     88 H37         2.9720   -0.2460   -1.7030 h1        1 MOL      0.031999
     89 H38         2.3310    1.5200   -2.6770 ho        1 MOL      0.361699
     90 H39         3.9030   -1.0160   -4.4880 hc        1 MOL      0.119376
     91 H40         3.1250   -1.9890   -3.2100 hc        1 MOL      0.119376
     92 H41         2.1460   -0.7100   -4.0850 hc        1 MOL      0.119376
     93 N9          5.3580    2.3150   -1.7440 n         1 MOL     -0.330479
     94 C29         5.7000    3.4640   -0.9190 c3        1 MOL      0.217920
     95 C30         4.5300    4.1890   -0.3560 c         1 MOL      0.341793
     96 O16         4.6070    4.9100    0.6400 o         1 MOL     -0.519757
     97 C31         6.6690    4.4270   -1.5880 c3        1 MOL      0.052474
     98 C32         8.0150    3.8360   -1.9610 c3        1 MOL      0.020222
     99 C33         6.9180    5.7580   -0.8560 c3        1 MOL     -0.322412
    100 C34         8.8870    3.4530   -0.7710 c3        1 MOL      0.025679
    101 H42         5.2530    2.4980   -2.7330 hn        1 MOL      0.218557
    102 H43         6.2700    3.1120   -0.0570 h1        1 MOL      0.046100
    103 H44         6.2060    4.7060   -2.5260 hc        1 MOL     -0.019607
    104 H45         8.6160    4.5150   -2.5650 hc        1 MOL     -0.016255
    105 H46         7.8040    2.9090   -2.4900 hc        1 MOL     -0.016255
    106 H47         7.6680    6.2480   -1.4690 hc        1 MOL      0.086817
    107 H48         6.0230    6.3710   -0.7350 hc        1 MOL      0.086817
    108 H49         7.3520    5.5910    0.1320 hc        1 MOL      0.086817
    109 H50         9.8340    3.0660   -1.1280 hc        1 MOL      0.006119
    110 H51         9.1920    4.2760   -0.1220 hc        1 MOL      0.006119
    111 H52         8.4660    2.6550   -0.1550 hc        1 MOL      0.006119
    112 N10         3.4620    4.1100   -1.1260 n         1 MOL     -0.422007
    113 C35         2.1560    4.7230   -0.7510 c3        1 MOL      0.436604
    114 C36         1.1310    3.5730   -0.8000 c         1 MOL      0.367263
    115 O17         1.3120    2.6760   -1.5740 o         1 MOL     -0.417372
    116 C37         1.7590    5.7960   -1.8650 c3        1 MOL      0.348974
    117 C38         2.8970    6.7970   -2.0130 c3        1 MOL     -0.351551
    118 O18         0.6490    6.4790   -1.3310 oh        1 MOL     -0.738769
    119 H53         3.5420    3.5400   -1.9560 hn        1 MOL      0.182388
    120 H54         2.1220    5.1750    0.2400 h1        1 MOL     -0.012541
    121 H55         1.6040    5.3200   -2.8290 h1        1 MOL      0.016311
    122 H56         0.5140    7.3160   -1.7830 ho        1 MOL      0.438844
    123 H57         2.5700    7.6970   -2.5360 hc        1 MOL      0.086433
    124 H58         3.3520    6.9680   -1.0310 hc        1 MOL      0.086433
    125 H59         3.6450    6.2720   -2.6090 hc        1 MOL      0.086433
    126 N11        -0.0550    3.8310   -0.1250 n         1 MOL     -0.551429
    127 C39        -1.1440    2.9070   -0.0240 c3        1 MOL      0.020021
    128 C40        -1.7150    2.5450   -1.4380 c         1 MOL      0.435186
    129 O19        -1.6460    3.3770   -2.3660 o         1 MOL     -0.534231
    130 C41        -2.3650    3.4850    0.8030 c3        1 MOL      0.397381
    131 C42        -2.9610    4.8210    0.2640 c3        1 MOL     -0.515860
    132 O20        -1.8570    3.7060    2.1270 oh        1 MOL     -0.707566
    133 H60        -0.0650    4.6980    0.3960 hn        1 MOL      0.313818
    134 H61        -0.7810    1.9750    0.4180 h1        1 MOL      0.105341
    135 H62        -3.1730    2.7580    0.9040 h1        1 MOL      0.130917
    136 H63        -1.0700    4.2410    2.0080 ho        1 MOL      0.383997
    137 H64        -3.6020    4.7380   -0.6070 hc        1 MOL      0.135537
    138 H65        -3.4320    5.3920    1.0720 hc        1 MOL      0.135537
    139 H66        -2.0380    5.3700    0.0300 hc        1 MOL      0.135537
    140 N12        -2.5130    1.5160   -1.5710 n         1 MOL     -0.022450
    141 C43        -3.2380    1.1850   -2.8280 c3        1 MOL      0.012473
    142 C44        -3.7460   -0.2620   -2.9340 c         1 MOL      0.686057
    143 O21        -3.9660   -0.7040   -4.0410 o         1 MOL     -0.641134
    144 C45        -4.4760    2.0820   -3.0720 c3        1 MOL     -0.185995
    145 C46        -5.7860    1.8030   -2.1930 c3        1 MOL      0.095104
    146 C47        -6.8780    2.8110   -2.2850 c3        1 MOL     -0.359364
    147 C48        -6.3550    4.1020   -1.7200 c3        1 MOL      0.368825
    148 N13        -7.2350    5.2460   -2.0640 n4        1 MOL     -0.577923
    149 H67        -2.7050    0.9660   -0.7410 hn        1 MOL     -0.364677
    150 H68        -2.5570    1.2970   -3.6630 h1        1 MOL      0.107962
    151 H69        -4.7920    1.8600   -4.0910 hc        1 MOL      0.044367
    152 H70        -4.3120    3.1580   -3.0420 hc        1 MOL      0.044367
    153 H71        -5.4800    1.5920   -1.1700 hc        1 MOL      0.056429
    154 H72        -6.2330    0.8990   -2.6030 hc        1 MOL      0.056429
    155 H73        -7.7410    2.3950   -1.7630 hc        1 MOL      0.106833
    156 H74        -6.9950    2.9860   -3.3510 hc        1 MOL      0.106833
    157 H75        -5.3200    4.4060   -1.9140 hx        1 MOL      0.000759
    158 H76        -6.4270    3.9360   -0.6420 hx        1 MOL      0.000759
    159 H77        -7.1480    5.5070   -3.0330 hn        1 MOL      0.365034
    160 H78        -8.2110    5.0130   -1.9090 hn        1 MOL      0.365034
    161 H79        -7.1300    6.0110   -1.4110 hn        1 MOL      0.365034
    162 N14        -3.9370   -0.9520   -1.8000 n         1 MOL     -0.063677
    163 C49        -4.4660   -2.2890   -1.6540 c3        1 MOL     -0.368836
    164 C50        -5.9610   -2.3090   -1.7850 c         1 MOL      0.437881
    165 O22        -6.5850   -1.4790   -1.0760 o         1 MOL     -0.520372
    166 C51        -3.9320   -2.9210   -0.4000 c3        1 MOL      1.218323
    167 C52        -4.1670   -4.3330   -0.1690 c3        1 MOL     -0.569950
    168 C53        -3.6880   -5.2110   -1.2750 c         1 MOL      0.849855
    169 O23        -2.4880   -5.4160   -1.2830 o         1 MOL     -0.822138
    170 O24        -4.5420   -5.5020   -2.2030 o         1 MOL     -0.822138
    171 H80        -3.7140   -0.5590   -0.8930 hn        1 MOL     -0.103532
    172 H81        -4.0670   -2.8070   -2.5220 h1        1 MOL      0.044253
    173 H82        -4.4720   -2.4990    0.4570 hc        1 MOL     -0.276247
    174 H83        -2.8890   -2.6310   -0.3530 hc        1 MOL     -0.276247
    175 H84        -5.2310   -4.4320    0.0410 hc        1 MOL      0.112124
    176 H85        -3.6170   -4.6510    0.7160 hc        1 MOL      0.112124
    177 N15        -6.5580   -3.3070   -2.4660 n         1 MOL     -0.297803
    178 C54        -7.9510   -3.6010   -2.5280 c3        1 MOL     -0.244972
    179 H86        -8.0900   -4.6370   -2.8400 h1        1 MOL      0.109076
    180 H87        -8.3990   -3.4560   -1.5440 h1        1 MOL      0.109076
    181 H88        -8.4320   -2.9380   -3.2480 h1        1 MOL      0.109076
    182 H89        -5.9560   -3.9420   -2.9620 hn        1 MOL      0.390615
    183 Ca1        -0.0680   -5.2780   -2.1710 Ca        1 MOL      1.723527
    184 O25         2.0830   -4.7500   -3.6450 oh        1 MOL     -0.928939
    185 H90         2.7710   -5.4150   -3.6610 ho        1 MOL      0.452748
    186 H91         2.2160   -4.2440   -4.4420 ho        1 MOL      0.452748
    187 O26        -0.4260   -6.2600   -4.6210 oh        1 MOL     -0.928939
    188 H92        -0.0530   -6.7820   -5.3350 ho        1 MOL      0.452748
    189 H93        -1.1110   -5.7370   -5.0450 ho        1 MOL      0.452748
    190 O27        -1.6820   -3.3960   -3.8140 oh        1 MOL     -0.928939
    191 H94        -1.3250   -2.6310   -3.3720 ho        1 MOL      0.452748
    192 H95        -1.9620   -3.0870   -4.6780 ho        1 MOL      0.452748
@<TRIPOS>BOND
     1    1    2 1   
     2    1    4 1   
     3    1    5 1   
     4    1    6 1   
     5    2    3 2   
     6    2    7 1   
     7    7    8 1   
     8    7   15 1   
     9    8    9 1   
    10    8   11 1   
    11    8   16 1   
    12    9   10 2   
    13    9   19 1   
    14   11   12 1   
    15   11   17 1   
    16   11   18 1   
    17   12   13 1   
    18   12   14 1   
    19   19   20 1   
    20   19   28 1   
    21   20   21 1   
    22   20   23 1   
    23   20   29 1   
    24   21   22 2   
    25   21   41 1   
    26   23   24 1   
    27   23   30 1   
    28   23   31 1   
    29   24   25 1   
    30   24   32 1   
    31   24   33 1   
    32   25   26 1   
    33   25   34 1   
    34   25   35 1   
    35   26   27 1   
    36   26   36 1   
    37   26   37 1   
    38   27   38 1   
    39   27   39 1   
    40   27   40 1   
    41   41   42 1   
    42   41   49 1   
    43   42   43 1   
    44   42   45 1   
    45   42   50 1   
    46   43   44 2   
    47   43   53 1   
    48   45   46 1   
    49   45   51 1   
    50   45   52 1   
    51   46   47 1   
    52   46   48 1   
    53   53   54 1   
    54   53   57 1   
    55   54   55 1   
    56   54   58 1   
    57   54   59 1   
    58   55   56 2   
    59   55   60 1   
    60   60   61 1   
    61   60   68 1   
    62   61   62 1   
    63   61   64 1   
    64   61   69 1   
    65   62   63 2   
    66   62   72 1   
    67   64   65 1   
    68   64   70 1   
    69   64   71 1   
    70   65   66 1   
    71   65   67 1   
    72   72   73 1   
    73   72   76 1   
    74   73   74 1   
    75   73   77 1   
    76   73   78 1   
    77   74   75 2   
    78   74   79 1   
    79   79   80 1   
    80   79   86 1   
    81   80   81 1   
    82   80   83 1   
    83   80   87 1   
    84   81   82 2   
    85   81   93 1   
    86   83   84 1   
    87   83   85 1   
    88   83   88 1   
    89   84   90 1   
    90   84   91 1   
    91   84   92 1   
    92   85   89 1   
    93   93   94 1   
    94   93  101 1   
    95   94   95 1   
    96   94   97 1   
    97   94  102 1   
    98   95   96 2   
    99   95  112 1   
   100   97   98 1   
   101   97   99 1   
   102   97  103 1   
   103   98  100 1   
   104   98  104 1   
   105   98  105 1   
   106   99  106 1   
   107   99  107 1   
   108   99  108 1   
   109  100  109 1   
   110  100  110 1   
   111  100  111 1   
   112  112  113 1   
   113  112  119 1   
   114  113  114 1   
   115  113  116 1   
   116  113  120 1   
   117  114  115 2   
   118  114  126 1   
   119  116  117 1   
   120  116  118 1   
   121  116  121 1   
   122  117  123 1   
   123  117  124 1   
   124  117  125 1   
   125  118  122 1   
   126  126  127 1   
   127  126  133 1   
   128  127  128 1   
   129  127  130 1   
   130  127  134 1   
   131  128  129 2   
   132  128  140 1   
   133  130  131 1   
   134  130  132 1   
   135  130  135 1   
   136  131  137 1   
   137  131  138 1   
   138  131  139 1   
   139  132  136 1   
   140  140  141 1   
   141  140  149 1   
   142  141  142 1   
   143  141  144 1   
   144  141  150 1   
   145  142  143 2   
   146  142  162 1   
   147  144  145 1   
   148  144  151 1   
   149  144  152 1   
   150  145  146 1   
   151  145  153 1   
   152  145  154 1   
   153  146  147 1   
   154  146  155 1   
   155  146  156 1   
   156  147  148 1   
   157  147  157 1   
   158  147  158 1   
   159  148  159 1   
   160  148  160 1   
   161  148  161 1   
   162  162  163 1   
   163  162  171 1   
   164  163  164 1   
   165  163  166 1   
   166  163  172 1   
   167  164  165 2   
   168  164  177 1   
   169  166  167 1   
   170  166  173 1   
   171  166  174 1   
   172  167  168 1   
   173  167  175 1   
   174  167  176 1   
   175  168  169 1   
   176  168  170 1   
   177  177  178 1   
   178  177  182 1   
   179  178  179 1   
   180  178  180 1   
   181  178  181 1   
   182  184  185 1   
   183  184  186 1   
   184  187  188 1   
   185  187  189 1   
   186  190  191 1   
   187  190  192 1   
@<TRIPOS>SUBSTRUCTURE
     1 MOL         1 TEMP              0 ****  ****    0 ROOT
