@<TRIPOS>MOLECULE
MOL
  185   180     1     0     0
SMALL
resp


@<TRIPOS>ATOM
      1 C1         -6.1780    1.2760   -4.3580 c3        1 MOL     -0.460751
      2 C2         -6.5470    1.3380   -2.8170 c         1 MOL      0.691513
      3 O1         -5.7520    0.9390   -1.9820 o         1 MOL     -0.559604
      4 H1         -5.6000    0.3730   -4.5560 hc        1 MOL      0.126366
      5 H2         -7.0920    1.2580   -4.9510 hc        1 MOL      0.126366
      6 H3         -5.5860    2.1510   -4.6260 hc        1 MOL      0.126366
      7 N1         -7.8070    1.6340   -2.4900 n         1 MOL     -0.642734
      8 C3         -8.3600    1.7940   -1.1220 c3        1 MOL      0.059673
      9 C4         -7.9520    0.6550   -0.1730 c         1 MOL      0.551770
     10 O2         -7.3550    0.9880    0.9590 o         1 MOL     -0.473649
     11 C5         -8.0040    3.1750   -0.5700 c3        1 MOL     -0.088113
     12 C6         -8.1130    4.4200   -1.4660 c         1 MOL      0.714550
     13 O3         -7.1430    5.2240   -1.4150 o         1 MOL     -0.674615
     14 O4         -9.1780    4.6450   -2.0340 o         1 MOL     -0.674615
     15 H4         -8.4920    1.7220   -3.2270 hn        1 MOL      0.352399
     16 H5         -9.4510    1.8510   -1.2230 h1        1 MOL      0.056875
     17 H6         -6.9710    3.1400   -0.2460 hc        1 MOL      0.037008
     18 H7         -8.5630    3.4130    0.3350 hc        1 MOL      0.037008
     19 N2         -8.2340   -0.6450   -0.5960 n         1 MOL     -0.781441
     20 C7         -8.0800   -1.7800    0.3730 c3        1 MOL      0.270671
     21 C8         -6.6440   -2.0230    0.9090 c         1 MOL      0.390965
     22 O5         -6.4900   -2.8940    1.7820 o         1 MOL     -0.542073
     23 C9         -8.7230   -3.0690   -0.1420 c3        1 MOL     -0.197839
     24 C10       -10.2360   -3.0650   -0.4950 c3        1 MOL      0.129616
     25 C11       -10.5830   -4.5020   -0.8120 c3        1 MOL      0.077000
     26 C12       -12.0100   -4.4420   -1.4860 c3        1 MOL      0.151274
     27 N3        -12.4520   -5.8790   -1.7180 n4        1 MOL     -0.457223
     28 H8         -8.4670   -0.8990   -1.5430 hn        1 MOL      0.398014
     29 H9         -8.6490   -1.4010    1.2200 h1        1 MOL      0.084632
     30 H10        -8.6500   -3.7720    0.6990 hc        1 MOL      0.055012
     31 H11        -8.2090   -3.3350   -1.0580 hc        1 MOL      0.055012
     32 H12       -10.4300   -2.5010   -1.4090 hc        1 MOL     -0.024057
     33 H13       -10.7980   -2.7190    0.3700 hc        1 MOL     -0.024057
     34 H14       -10.5270   -5.1570    0.0590 hc        1 MOL      0.004814
     35 H15        -9.8990   -4.7970   -1.6120 hc        1 MOL      0.004814
     36 H16       -12.0960   -3.9200   -2.4420 hx        1 MOL      0.047917
     37 H17       -12.7460   -3.9640   -0.8400 hx        1 MOL      0.047917
     38 H18       -11.7930   -6.3670   -2.3030 hn        1 MOL      0.327082
     39 H19       -12.8070   -6.3240   -0.8920 hn        1 MOL      0.327082
     40 H20       -13.2940   -5.9290   -2.2730 hn        1 MOL      0.327082
     41 N4         -5.6530   -1.3270    0.3760 n         1 MOL     -0.301587
     42 C13        -4.1940   -1.5360    0.6580 c3        1 MOL     -0.134269
     43 C14        -3.6570   -1.6620    2.1410 c         1 MOL      0.691029
     44 O6         -4.0080   -0.8340    3.0220 o         1 MOL     -0.509504
     45 C15        -3.4290   -0.4170   -0.0610 c3        1 MOL      0.049590
     46 C16        -1.9370   -0.7810   -0.1170 c         1 MOL      0.525894
     47 O7         -1.5800   -1.5240   -1.1270 o         1 MOL     -0.736481
     48 O8         -1.1130   -0.4060    0.7540 o         1 MOL     -0.736481
     49 H21        -5.9110   -0.5350   -0.1790 hn        1 MOL      0.270072
     50 H22        -3.9090   -2.4720    0.1980 h1        1 MOL      0.042241
     51 H23        -3.6250    0.5510    0.4120 hc        1 MOL      0.086304
     52 H24        -3.6290   -0.4540   -1.1380 hc        1 MOL      0.086304
     53 N5         -2.9440   -2.7890    2.4010 n         1 MOL     -0.324805
     54 C17        -2.5830   -3.2410    3.6850 c3        1 MOL     -0.239109
     55 C18        -1.6670   -2.3270    4.5440 c         1 MOL      0.598342
     56 O9         -1.5950   -2.6600    5.7430 o         1 MOL     -0.557410
     57 H25        -2.7520   -3.4160    1.6260 hn        1 MOL      0.254894
     58 H26        -2.0820   -4.2000    3.5480 h1        1 MOL      0.113012
     59 H27        -3.4750   -3.3610    4.2880 h1        1 MOL      0.113012
     60 N6         -1.0490   -1.2430    4.0470 n         1 MOL     -0.495300
     61 C19        -0.2470   -0.2910    4.7760 c3        1 MOL      0.071956
     62 C20        -0.5430    1.1670    4.3270 c         1 MOL      0.469948
     63 O10         0.1810    2.0580    4.6450 o         1 MOL     -0.479592
     64 C21         1.2470   -0.6080    4.7350 c3        1 MOL     -0.257716
     65 C22         1.9480   -0.4050    3.4240 c         1 MOL      0.678861
     66 N7          2.8670    0.4990    3.2610 n         1 MOL     -0.733182
     67 O11         1.5590   -1.0330    2.4740 o         1 MOL     -0.691661
     68 H28        -1.1580   -1.0560    3.0520 hn        1 MOL      0.494662
     69 H29        -0.4550   -0.3810    5.8520 h1        1 MOL      0.110868
     70 H30         1.4490   -1.6150    5.0920 hc        1 MOL      0.085016
     71 H31         1.6820    0.1130    5.4300 hc        1 MOL      0.085016
     72 H32         3.2640    0.9310    4.0850 hn        1 MOL      0.357759
     73 H33         3.2840    0.5870    2.3530 hn        1 MOL      0.357759
     74 N8         -1.6290    1.3480    3.4930 n         1 MOL     -0.337484
     75 C23        -2.0250    2.7150    2.9490 c3        1 MOL     -0.069055
     76 C24        -1.0970    3.2940    1.9330 c         1 MOL      0.442049
     77 O12        -0.6370    4.3990    2.0420 o         1 MOL     -0.534076
     78 H34        -2.0080    0.5480    3.0110 hn        1 MOL      0.065848
     79 H35        -2.0580    3.4290    3.7750 h1        1 MOL      0.114942
     80 H36        -3.0680    2.7170    2.6490 h1        1 MOL      0.114942
     81 N9         -0.6520    2.5050    0.9500 n         1 MOL     -0.146147
     82 C25         0.2270    2.9260   -0.1220 c3        1 MOL      0.222898
     83 C26         1.4970    2.0070   -0.2720 c         1 MOL      0.299899
     84 O13         1.5150    0.8150    0.0620 o         1 MOL     -0.422600
     85 C27        -0.4520    2.9760   -1.5240 c3        1 MOL     -0.005523
     86 C28        -1.6900    3.8770   -1.5630 ca        1 MOL     -0.062725
     87 C29        -1.4320    5.1910   -1.2150 ca        1 MOL     -0.214984
     88 C30        -2.9750    3.3720   -1.7690 ca        1 MOL     -0.214984
     89 C31        -2.5670    6.0160   -1.0470 ca        1 MOL     -0.170208
     90 C32        -4.0660    4.1190   -1.5420 ca        1 MOL     -0.170208
     91 C33        -3.8860    5.4910   -1.3040 ca        1 MOL      0.351932
     92 O14        -4.9050    6.2900   -1.1350 oh        1 MOL     -0.561087
     93 H37        -0.9900    1.5680    0.7590 hn        1 MOL      0.097375
     94 H38         0.7270    3.8790    0.0460 h1        1 MOL      0.010496
     95 H39        -0.7630    1.9780   -1.8230 hc        1 MOL      0.011962
     96 H40         0.2630    3.3370   -2.2680 hc        1 MOL      0.011962
     97 H41        -0.4640    5.6380   -1.0220 ha        1 MOL      0.129588
     98 H42        -3.0270    2.3150   -1.9600 ha        1 MOL      0.129588
     99 H43        -2.4390    7.0600   -0.8060 ha        1 MOL      0.115676
    100 H44        -5.0260    3.6440   -1.6530 ha        1 MOL      0.115676
    101 H45        -5.7630    5.8640   -1.1450 ho        1 MOL      0.428277
    102 N10         2.5280    2.5300   -0.9020 n         1 MOL     -0.472915
    103 C34         3.7620    1.8710   -1.2230 c3        1 MOL      0.217991
    104 C35         4.6950    1.8450    0.0050 c         1 MOL      0.498318
    105 O15         5.0420    0.7670    0.5710 o         1 MOL     -0.527593
    106 C36         4.4340    2.5300   -2.4350 c3        1 MOL      0.061138
    107 C37         3.4930    2.9610   -3.5800 c3        1 MOL     -0.029926
    108 C38         5.6880    1.7640   -3.0730 c3        1 MOL     -0.498243
    109 C39         2.5570    1.8570   -4.1700 c3        1 MOL     -0.084448
    110 H46         2.4600    3.5150   -1.0820 hn        1 MOL      0.279906
    111 H47         3.4410    0.8630   -1.4600 h1        1 MOL      0.019557
    112 H48         4.9320    3.4450   -2.1230 hc        1 MOL     -0.020355
    113 H49         4.0720    3.4320   -4.3660 hc        1 MOL      0.020510
    114 H50         2.8450    3.7560   -3.2100 hc        1 MOL      0.020510
    115 H51         5.3840    0.8290   -3.5400 hc        1 MOL      0.135843
    116 H52         6.3080    2.3330   -3.7760 hc        1 MOL      0.135843
    117 H53         6.3250    1.4500   -2.2520 hc        1 MOL      0.135843
    118 H54         1.8960    1.4390   -3.4100 hc        1 MOL      0.042049
    119 H55         1.8060    2.1480   -4.9090 hc        1 MOL      0.042049
    120 H56         3.1680    1.1020   -4.6550 hc        1 MOL      0.042049
    121 N11         5.2260    2.9880    0.4410 n         1 MOL     -0.352714
    122 C40         6.2190    3.0410    1.5590 c3        1 MOL      0.298685
    123 C41         7.5290    2.3540    1.3220 c         1 MOL      0.089600
    124 O16         8.1210    1.7490    2.2270 o         1 MOL     -0.414179
    125 C42         6.5170    4.4770    2.0090 c3        1 MOL      0.213394
    126 O17         5.3090    5.1280    2.2010 oh        1 MOL     -0.605680
    127 H57         4.8090    3.8610    0.1610 hn        1 MOL      0.230692
    128 H58         5.8840    2.5330    2.4660 h1        1 MOL      0.050839
    129 H59         7.0240    4.8980    1.1420 h1        1 MOL      0.006122
    130 H60         7.0970    4.5660    2.9280 h1        1 MOL      0.006122
    131 H61         5.5230    6.0620    2.1250 ho        1 MOL      0.410292
    132 N12         8.0680    2.4970    0.0730 n         1 MOL     -0.257371
    133 C43         9.2700    1.7860   -0.4750 c3        1 MOL      0.341416
    134 C44         9.1240    0.2210   -0.4470 c         1 MOL      0.280652
    135 O18        10.1560   -0.4850   -0.5080 o         1 MOL     -0.518569
    136 C45        10.5590    2.4120    0.1400 c3        1 MOL     -0.474601
    137 H62         7.6990    3.2600   -0.4720 hn        1 MOL      0.218639
    138 H63         9.3060    2.1320   -1.5000 h1        1 MOL      0.011911
    139 H64        10.5490    3.4990    0.0170 hc        1 MOL      0.135226
    140 H65        10.6450    2.1460    1.1940 hc        1 MOL      0.135226
    141 H66        11.3720    2.1030   -0.5180 hc        1 MOL      0.135226
    142 N13         7.9060   -0.2740   -0.2790 n         1 MOL     -0.040860
    143 C46         7.5890   -1.6380    0.0540 c3        1 MOL      0.313363
    144 C47         6.6870   -2.4070   -0.8450 c         1 MOL      0.186584
    145 O19         5.9320   -1.8330   -1.5760 o         1 MOL     -0.366636
    146 C48         7.0410   -1.5450    1.5300 c3        1 MOL     -0.290034
    147 H67         7.1430    0.3900   -0.3650 hn        1 MOL     -0.039597
    148 H68         8.5130   -2.1950    0.2210 h1        1 MOL      0.017538
    149 H69         7.7310   -1.0020    2.1580 hc        1 MOL      0.093823
    150 H70         6.0200   -1.1720    1.4240 hc        1 MOL      0.093823
    151 H71         6.7880   -2.4810    2.0410 hc        1 MOL      0.093823
    152 N14         6.8100   -3.7470   -0.9640 n         1 MOL     -0.366787
    153 C49         6.0840   -4.6660   -1.8540 c3        1 MOL     -0.091144
    154 C50         6.3330   -4.4190   -3.3890 c         1 MOL      0.438423
    155 O20         5.5840   -4.8710   -4.2010 o         1 MOL     -0.478561
    156 C51         4.6000   -4.7360   -1.4600 c3        1 MOL      0.173686
    157 C52         4.3100   -4.9080    0.0280 c3        1 MOL     -0.133085
    158 C53         2.7710   -4.9830    0.2660 c         1 MOL      0.632994
    159 O21         2.2930   -3.8840    0.7200 o         1 MOL     -0.665618
    160 O22         2.0370   -5.9440   -0.0330 o         1 MOL     -0.665618
    161 H72         7.4940   -4.1760   -0.3550 hn        1 MOL      0.274077
    162 H73         6.5160   -5.6530   -1.6900 h1        1 MOL      0.094103
    163 H74         4.0550   -5.5150   -1.9910 hc        1 MOL     -0.002999
    164 H75         4.1960   -3.8100   -1.8500 hc        1 MOL     -0.002999
    165 H76         4.5860   -3.9810    0.5410 hc        1 MOL     -0.005171
    166 H77         4.8430   -5.7590    0.4510 hc        1 MOL     -0.005171
    167 N15         7.4680   -3.7800   -3.7150 n         1 MOL     -0.277339
    168 C54         7.6670   -3.0410   -4.9820 c3        1 MOL     -0.225020
    169 H78         7.6190   -3.7370   -5.8200 h1        1 MOL      0.114316
    170 H79         6.8860   -2.2880   -5.0900 h1        1 MOL      0.114316
    171 H80         8.6420   -2.5540   -4.9700 h1        1 MOL      0.114316
    172 H81         8.0540   -3.6460   -2.9070 hn        1 MOL      0.212113
    173 Ca1         0.9420   -1.7460    0.0130 Ca        1 MOL      1.756454
    174 O23         1.3130   -1.1380   -2.7340 oh        1 MOL     -0.833650
    175 H82         0.9800   -1.9580   -3.1110 ho        1 MOL      0.403867
    176 H83         0.9730   -0.4580   -3.3090 ho        1 MOL      0.403867
    177 O24         0.6210   -3.8590   -1.5750 oh        1 MOL     -0.833650
    178 H84         0.5510   -4.8000   -1.4070 ho        1 MOL      0.403867
    179 H85         0.0710   -3.7080   -2.3410 ho        1 MOL      0.403867
    180 O25         3.6180   -1.3810   -0.2590 oh        1 MOL     -0.833650
    181 H86         4.1420   -0.7450    0.2130 ho        1 MOL      0.403867
    182 H87         4.2530   -1.9110   -0.7500 ho        1 MOL      0.403867
    183 O26        -0.2500   -3.6600    1.5360 oh        1 MOL     -0.833650
    184 H88         0.3410   -4.0460    2.1820 ho        1 MOL      0.403867
    185 H89        -0.9060   -4.3280    1.3770 ho        1 MOL      0.403867
@<TRIPOS>BOND
     1    1    2 1   
     2    1    4 1   
     3    1    5 1   
     4    1    6 1   
     5    2    3 2   
     6    2    7 1   
     7    7    8 1   
     8    7   15 1   
     9    8    9 1   
    10    8   11 1   
    11    8   16 1   
    12    9   10 2   
    13    9   19 1   
    14   11   12 1   
    15   11   17 1   
    16   11   18 1   
    17   12   13 1   
    18   12   14 1   
    19   19   20 1   
    20   19   28 1   
    21   20   21 1   
    22   20   23 1   
    23   20   29 1   
    24   21   22 2   
    25   21   41 1   
    26   23   24 1   
    27   23   30 1   
    28   23   31 1   
    29   24   25 1   
    30   24   32 1   
    31   24   33 1   
    32   25   26 1   
    33   25   34 1   
    34   25   35 1   
    35   26   27 1   
    36   26   36 1   
    37   26   37 1   
    38   27   38 1   
    39   27   39 1   
    40   27   40 1   
    41   41   42 1   
    42   41   49 1   
    43   42   43 1   
    44   42   45 1   
    45   42   50 1   
    46   43   44 2   
    47   43   53 1   
    48   45   46 1   
    49   45   51 1   
    50   45   52 1   
    51   46   47 1   
    52   46   48 1   
    53   53   54 1   
    54   53   57 1   
    55   54   55 1   
    56   54   58 1   
    57   54   59 1   
    58   55   56 2   
    59   55   60 1   
    60   60   61 1   
    61   60   68 1   
    62   61   62 1   
    63   61   64 1   
    64   61   69 1   
    65   62   63 2   
    66   62   74 1   
    67   64   65 1   
    68   64   70 1   
    69   64   71 1   
    70   65   66 1   
    71   65   67 2   
    72   66   72 1   
    73   66   73 1   
    74   74   75 1   
    75   74   78 1   
    76   75   76 1   
    77   75   79 1   
    78   75   80 1   
    79   76   77 2   
    80   76   81 1   
    81   81   82 1   
    82   81   93 1   
    83   82   83 1   
    84   82   85 1   
    85   82   94 1   
    86   83   84 2   
    87   83  102 1   
    88   85   86 1   
    89   85   95 1   
    90   85   96 1   
    91   86   87 ar  
    92   86   88 ar  
    93   87   89 ar  
    94   87   97 1   
    95   88   90 ar  
    96   88   98 1   
    97   89   91 ar  
    98   89   99 1   
    99   90   91 ar  
   100   90  100 1   
   101   91   92 1   
   102   92  101 1   
   103  102  103 1   
   104  102  110 1   
   105  103  104 1   
   106  103  106 1   
   107  103  111 1   
   108  104  105 2   
   109  104  121 1   
   110  106  107 1   
   111  106  108 1   
   112  106  112 1   
   113  107  109 1   
   114  107  113 1   
   115  107  114 1   
   116  108  115 1   
   117  108  116 1   
   118  108  117 1   
   119  109  118 1   
   120  109  119 1   
   121  109  120 1   
   122  121  122 1   
   123  121  127 1   
   124  122  123 1   
   125  122  125 1   
   126  122  128 1   
   127  123  124 2   
   128  123  132 1   
   129  125  126 1   
   130  125  129 1   
   131  125  130 1   
   132  126  131 1   
   133  132  133 1   
   134  132  137 1   
   135  133  134 1   
   136  133  136 1   
   137  133  138 1   
   138  134  135 2   
   139  134  142 1   
   140  136  139 1   
   141  136  140 1   
   142  136  141 1   
   143  142  143 1   
   144  142  147 1   
   145  143  144 1   
   146  143  146 1   
   147  143  148 1   
   148  144  145 2   
   149  144  152 1   
   150  146  149 1   
   151  146  150 1   
   152  146  151 1   
   153  152  153 1   
   154  152  161 1   
   155  153  154 1   
   156  153  156 1   
   157  153  162 1   
   158  154  155 2   
   159  154  167 1   
   160  156  157 1   
   161  156  163 1   
   162  156  164 1   
   163  157  158 1   
   164  157  165 1   
   165  157  166 1   
   166  158  159 1   
   167  158  160 1   
   168  167  168 1   
   169  167  172 1   
   170  168  169 1   
   171  168  170 1   
   172  168  171 1   
   173  174  175 1   
   174  174  176 1   
   175  177  178 1   
   176  177  179 1   
   177  180  181 1   
   178  180  182 1   
   179  183  184 1   
   180  183  185 1   
@<TRIPOS>SUBSTRUCTURE
     1 MOL         1 TEMP              0 ****  ****    0 ROOT
