@<TRIPOS>MOLECULE
MOL
  188   182     1     0     0
SMALL
resp


@<TRIPOS>ATOM
      1 C1         -4.6420    0.3000   -3.5180 c3        1 MOL     -0.208230
      2 C2         -5.5850    0.5970   -2.3540 c         1 MOL      0.601855
      3 O1         -5.1800    0.8430   -1.2420 o         1 MOL     -0.500469
      4 H1         -5.1680    0.4550   -4.4600 hc        1 MOL      0.056760
      5 H2         -3.7820    0.9680   -3.4690 hc        1 MOL      0.056760
      6 H3         -4.3040   -0.7340   -3.4570 hc        1 MOL      0.056760
      7 N1         -6.9370    0.7110   -2.5820 n         1 MOL     -0.531778
      8 C3         -8.0240    1.0490   -1.5310 c3        1 MOL      0.140041
      9 C4         -7.9570    0.1210   -0.3500 c         1 MOL      0.395279
     10 O2         -8.3360    0.4490    0.7520 o         1 MOL     -0.488817
     11 C5         -8.0400    2.5110   -1.1740 c3        1 MOL     -0.330981
     12 C6         -8.4500    3.3880   -2.4060 c         1 MOL      0.688587
     13 O3         -7.6640    3.6160   -3.3340 o         1 MOL     -0.653616
     14 O4         -9.6220    3.8530   -2.3670 o         1 MOL     -0.653616
     15 H4         -7.2080    0.5510   -3.5360 hn        1 MOL      0.285738
     16 H5         -9.0160    0.8680   -1.9510 h1        1 MOL      0.061508
     17 H6         -7.0620    2.8790   -0.8450 hc        1 MOL      0.143307
     18 H7         -8.6980    2.6650   -0.3280 hc        1 MOL      0.143307
     19 N2         -7.6330   -1.1730   -0.4950 n         1 MOL     -0.264065
     20 C7         -7.6070   -2.1870    0.5740 c3        1 MOL      0.138417
     21 C8         -6.2470   -2.6320    0.9460 c         1 MOL      0.526032
     22 O5         -6.1170   -3.6540    1.6680 o         1 MOL     -0.582869
     23 C9         -8.5410   -3.3680    0.2030 c3        1 MOL     -0.033681
     24 C10        -9.9370   -2.8960   -0.0350 c3        1 MOL      0.461097
     25 C11       -10.9570   -4.0830   -0.1530 c3        1 MOL     -0.211597
     26 C12       -10.6920   -5.1450   -1.2390 c3        1 MOL     -0.017760
     27 N3        -10.4540   -4.7310   -2.6750 n4        1 MOL     -0.366489
     28 H8         -7.5200   -1.5280   -1.4370 hn        1 MOL      0.127509
     29 H9         -8.1010   -1.7090    1.4250 h1        1 MOL      0.063558
     30 H10        -8.5140   -3.9700    1.1120 hc        1 MOL     -0.014243
     31 H11        -8.1490   -3.9210   -0.6480 hc        1 MOL     -0.014243
     32 H12        -9.8970   -2.3960   -1.0050 hc        1 MOL     -0.124071
     33 H13       -10.3270   -2.1760    0.6870 hc        1 MOL     -0.124071
     34 H14       -11.9470   -3.6790   -0.3370 hc        1 MOL      0.083534
     35 H15       -10.9980   -4.5870    0.8080 hc        1 MOL      0.083534
     36 H16       -11.5910   -5.7660   -1.2670 hx        1 MOL      0.096672
     37 H17        -9.9050   -5.7750   -0.8240 hx        1 MOL      0.096672
     38 H18        -9.6200   -4.1660   -2.7800 hn        1 MOL      0.282600
     39 H19       -10.3790   -5.5140   -3.3150 hn        1 MOL      0.282600
     40 H20       -11.2560   -4.1990   -2.9680 hn        1 MOL      0.282600
     41 N4         -5.1670   -2.0870    0.3750 n         1 MOL     -0.483104
     42 C13        -3.7610   -2.6820    0.6220 c3        1 MOL     -0.031078
     43 C14        -3.2160   -2.4840    2.0250 c         1 MOL      0.703361
     44 O6         -3.4230   -1.4060    2.6920 o         1 MOL     -0.523322
     45 C15        -2.7930   -2.3070   -0.5440 c3        1 MOL     -0.176643
     46 C16        -1.3640   -2.8960   -0.4670 c         1 MOL      0.821143
     47 O7         -1.1240   -3.8450   -1.2050 o         1 MOL     -0.769421
     48 O8         -0.4360   -2.2670    0.1260 o         1 MOL     -0.769421
     49 H21        -5.2390   -1.1540    0.0050 hn        1 MOL      0.286507
     50 H22        -3.7840   -3.7560    0.4930 h1        1 MOL      0.068644
     51 H23        -2.6070   -1.2410   -0.4400 hc        1 MOL      0.061134
     52 H24        -3.2020   -2.6080   -1.5110 hc        1 MOL      0.061134
     53 N5         -2.5010   -3.4770    2.6180 n         1 MOL     -0.454482
     54 C17        -1.9940   -3.3550    3.9820 c3        1 MOL     -0.073184
     55 C18        -0.9530   -2.3240    4.3090 c         1 MOL      0.356845
     56 O9         -0.7690   -1.8910    5.4600 o         1 MOL     -0.519061
     57 H25        -2.3600   -4.3620    2.1580 hn        1 MOL      0.270024
     58 H26        -1.5120   -4.2960    4.2690 h1        1 MOL      0.105298
     59 H27        -2.8710   -3.2570    4.6120 h1        1 MOL      0.105298
     60 N6         -0.3780   -1.7080    3.2760 n         1 MOL     -0.049931
     61 C19         0.4770   -0.5650    3.3750 c3        1 MOL     -0.058189
     62 C20        -0.1870    0.8170    3.5720 c         1 MOL      0.513700
     63 O10         0.4990    1.6700    4.1010 o         1 MOL     -0.546951
     64 C21         1.4920   -0.4550    2.2010 c3        1 MOL     -0.269736
     65 C22         2.3220   -1.7160    1.8460 c         1 MOL      0.341073
     66 N7          2.8650   -2.3540    2.8380 n         1 MOL     -0.565527
     67 O11         2.5290   -2.1480    0.7410 o         1 MOL     -0.582548
     68 H28        -0.4390   -2.1400    2.3640 hn        1 MOL      0.071282
     69 H29         1.1030   -0.6760    4.2590 h1        1 MOL      0.069937
     70 H30         2.1570    0.3890    2.4070 hc        1 MOL      0.177463
     71 H31         0.9310   -0.2090    1.3050 hc        1 MOL      0.177463
     72 H32         2.7480   -2.0590    3.7960 hn        1 MOL      0.319881
     73 H33         3.2730   -3.2780    2.7080 hn        1 MOL      0.319881
     74 N8         -1.4540    0.9760    3.1950 n         1 MOL     -0.041882
     75 C23        -2.2000    2.2010    3.5670 c3        1 MOL     -0.407897
     76 C24        -2.0030    3.3200    2.5060 c         1 MOL      0.617033
     77 O12        -2.5380    4.3540    2.7760 o         1 MOL     -0.504339
     78 H34        -1.9830    0.1770    2.8440 hn        1 MOL      0.150151
     79 H35        -1.8150    2.6870    4.4550 h1        1 MOL      0.160644
     80 H36        -3.2670    2.0220    3.6920 h1        1 MOL      0.160644
     81 N9         -1.3540    3.0030    1.4040 n         1 MOL     -0.145923
     82 C25        -0.7110    3.8460    0.4060 c3        1 MOL     -0.164074
     83 C26         0.4880    3.1450   -0.2220 c         1 MOL      0.580655
     84 O13         0.4760    1.9110   -0.2270 o         1 MOL     -0.484627
     85 C27        -1.6640    4.1690   -0.7340 c3        1 MOL     -0.079231
     86 C28        -2.7390    5.1510   -0.4070 ca        1 MOL     -0.038168
     87 C29        -3.9090    4.6540    0.1200 ca        1 MOL     -0.099828
     88 C30        -2.4380    6.5070   -0.4420 ca        1 MOL     -0.099828
     89 C31        -4.8510    5.5520    0.5360 ca        1 MOL     -0.299237
     90 C32        -3.3600    7.5250   -0.0040 ca        1 MOL     -0.299237
     91 C33        -4.5590    6.9510    0.4400 ca        1 MOL      0.408293
     92 O14        -5.5660    7.7540    0.7620 oh        1 MOL     -0.480019
     93 H37        -1.0050    2.0580    1.4870 hn        1 MOL      0.061005
     94 H38        -0.4130    4.7960    0.8570 h1        1 MOL      0.049931
     95 H39        -2.2060    3.2420   -0.9290 hc        1 MOL      0.079615
     96 H40        -1.0680    4.5870   -1.5510 hc        1 MOL      0.079615
     97 H41        -4.0450    3.5850    0.2320 ha        1 MOL      0.100298
     98 H42        -1.4820    6.8090   -0.8500 ha        1 MOL      0.100298
     99 H43        -5.8230    5.1370    0.7650 ha        1 MOL      0.149559
    100 H44        -3.1440    8.5810   -0.0740 ha        1 MOL      0.149559
    101 H45        -5.4530    8.6880    0.5910 ho        1 MOL      0.354434
    102 N10         1.3700    3.9290   -0.8020 n         1 MOL     -0.362414
    103 C34         2.5850    3.4530   -1.4000 c3        1 MOL     -0.231087
    104 C35         3.6520    3.3380   -0.2860 c         1 MOL      0.718607
    105 O15         4.2350    2.3060    0.0310 o         1 MOL     -0.586850
    106 C36         2.9900    4.2510   -2.6490 c3        1 MOL      0.207132
    107 C37         1.8280    4.4800   -3.6930 c3        1 MOL      0.024967
    108 C38         4.1940    3.6440   -3.4840 c3        1 MOL     -0.225698
    109 C39         1.3900    3.1740   -4.4010 c3        1 MOL     -0.117084
    110 H46         1.3030    4.9330   -0.6770 hn        1 MOL      0.280808
    111 H47         2.3920    2.4360   -1.7440 h1        1 MOL      0.115119
    112 H48         3.1770    5.2860   -2.3660 hc        1 MOL     -0.051203
    113 H49         2.1460    5.1910   -4.4450 hc        1 MOL     -0.014690
    114 H50         0.9480    4.8890   -3.2000 hc        1 MOL     -0.014690
    115 H51         4.5210    4.4340   -4.1620 hc        1 MOL      0.063271
    116 H52         5.0730    3.4670   -2.8720 hc        1 MOL      0.063271
    117 H53         3.9090    2.7060   -3.9520 hc        1 MOL      0.063271
    118 H54         2.0820    2.8700   -5.1840 hc        1 MOL      0.041021
    119 H55         1.2800    2.4760   -3.5770 hc        1 MOL      0.041021
    120 H56         0.3950    3.1850   -4.8730 hc        1 MOL      0.041021
    121 N11         4.0540    4.4590    0.2990 n         1 MOL     -0.520945
    122 C40         5.1260    4.4870    1.3820 c3        1 MOL      0.106638
    123 C41         6.4740    3.8110    1.0340 c         1 MOL      0.428127
    124 O16         7.0950    3.3540    1.9490 o         1 MOL     -0.479218
    125 C42         5.4060    5.9370    1.8020 c3        1 MOL      0.090236
    126 O17         4.2380    6.6700    2.1270 oh        1 MOL     -0.604718
    127 H57         3.9830    5.3070   -0.2540 hn        1 MOL      0.302066
    128 H58         4.6890    3.9630    2.2290 h1        1 MOL      0.132351
    129 H59         5.8960    6.4240    0.9540 h1        1 MOL      0.039666
    130 H60         6.1490    5.9160    2.6000 h1        1 MOL      0.039666
    131 H61         4.5370    7.4980    2.5110 ho        1 MOL      0.415710
    132 N12         6.7620    3.7730   -0.2960 n         1 MOL     -0.489172
    133 C43         7.7930    2.9760   -0.9310 c3        1 MOL      0.402630
    134 C44         7.9850    1.5010   -0.4440 c         1 MOL      0.402001
    135 O18         8.9820    0.8680   -0.7200 o         1 MOL     -0.512142
    136 C45         9.1280    3.6880   -1.0540 c3        1 MOL     -0.442750
    137 H62         6.1720    4.3200   -0.9040 hn        1 MOL      0.255692
    138 H63         7.4330    2.7480   -1.9340 h1        1 MOL     -0.005592
    139 H64         9.8430    3.0730   -1.5930 hc        1 MOL      0.113106
    140 H65         8.9350    4.6260   -1.5780 hc        1 MOL      0.113106
    141 H66         9.5480    3.7450   -0.0470 hc        1 MOL      0.113106
    142 N13         7.0240    1.0230    0.3600 n         1 MOL     -0.173734
    143 C46         6.9380   -0.2820    0.9870 c3        1 MOL      0.007876
    144 C47         6.8560   -1.3720   -0.0830 c         1 MOL      0.439772
    145 O19         6.1860   -1.2740   -1.0890 o         1 MOL     -0.502738
    146 C48         5.6400   -0.2940    1.8300 c3        1 MOL      0.167394
    147 H67         6.2280    1.6330    0.3830 hn        1 MOL      0.058692
    148 H68         7.8420   -0.4420    1.5770 h1        1 MOL      0.048613
    149 H69         4.7450   -0.2190    1.2090 hc        1 MOL     -0.005266
    150 H70         5.6060   -1.1870    2.4450 hc        1 MOL     -0.005266
    151 H71         5.6510    0.4650    2.6140 hc        1 MOL     -0.005266
    152 N14         7.4820   -2.5200    0.2030 n         1 MOL     -0.373398
    153 C49         7.4970   -3.7930   -0.6000 c3        1 MOL     -0.303840
    154 C50         7.9050   -3.6460   -2.1010 c         1 MOL      0.482577
    155 O20         7.5250   -4.4400   -2.9190 o         1 MOL     -0.517148
    156 C51         6.0630   -4.4420   -0.3960 c3        1 MOL      0.386474
    157 C52         5.7580   -5.0040    0.9260 c3        1 MOL     -0.175984
    158 C53         4.1990   -5.2920    1.0830 c         1 MOL      0.728806
    159 O21         3.4810   -5.5500    0.0650 o         1 MOL     -0.712112
    160 O22         3.6430   -5.2580    2.2350 o         1 MOL     -0.712112
    161 H72         7.9600   -2.5660    1.0950 hn        1 MOL      0.286025
    162 H73         8.2460   -4.4950   -0.2370 h1        1 MOL      0.130560
    163 H74         5.9490   -5.2420   -1.1290 hc        1 MOL     -0.022377
    164 H75         5.3110   -3.7100   -0.6720 hc        1 MOL     -0.022377
    165 H76         6.0900   -4.3590    1.7380 hc        1 MOL     -0.000092
    166 H77         6.2230   -5.9830    0.9030 hc        1 MOL     -0.000092
    167 N15         8.6080   -2.5870   -2.5300 n         1 MOL     -0.233155
    168 C54         8.7830   -2.3430   -3.9500 c3        1 MOL     -0.027449
    169 H78         8.0420   -2.9150   -4.5110 h1        1 MOL      0.049999
    170 H79         8.6520   -1.2810   -4.1560 h1        1 MOL      0.049999
    171 H80         9.7840   -2.6510   -4.2530 h1        1 MOL      0.049999
    172 H81         8.7170   -1.8920   -1.8050 hn        1 MOL      0.187585
    173 Ca1         1.5180   -4.0730   -0.8310 Ca        1 MOL      1.790619
    174 O23         2.8440   -5.3380   -3.0350 oh        1 MOL     -0.843613
    175 O24         0.9860   -4.9360    1.5690 oh        1 MOL     -0.843613
    176 H82         3.6920   -5.6650   -3.3200 ho        1 MOL      0.414108
    177 H83         1.8280   -5.3110    1.8330 ho        1 MOL      0.414108
    178 H84         2.5700   -4.7250   -3.7150 ho        1 MOL      0.414108
    179 H85         0.4040   -5.1370    2.3000 ho        1 MOL      0.414108
    180 O25         3.5580   -2.5600   -2.0050 oh        1 MOL     -0.843613
    181 H86         3.9680   -2.5130   -2.8700 ho        1 MOL      0.414108
    182 H87         3.7240   -1.6890   -1.6260 ho        1 MOL      0.414108
    183 O26         0.6560   -3.5520   -3.3410 oh        1 MOL     -0.843613
    184 H88         0.8550   -3.9320   -4.1930 ho        1 MOL      0.414108
    185 H89        -0.1950   -3.1250   -3.4510 ho        1 MOL      0.414108
    186 O27         0.3880   -6.4860   -1.3530 oh        1 MOL     -0.843613
    187 H90         0.0110   -6.5730   -2.2300 ho        1 MOL      0.414108
    188 H91         0.3270   -7.3720   -0.9780 ho        1 MOL      0.414108
@<TRIPOS>BOND
     1    1    2 1   
     2    1    4 1   
     3    1    5 1   
     4    1    6 1   
     5    2    3 2   
     6    2    7 1   
     7    7    8 1   
     8    7   15 1   
     9    8    9 1   
    10    8   11 1   
    11    8   16 1   
    12    9   10 2   
    13    9   19 1   
    14   11   12 1   
    15   11   17 1   
    16   11   18 1   
    17   12   13 1   
    18   12   14 1   
    19   19   20 1   
    20   19   28 1   
    21   20   21 1   
    22   20   23 1   
    23   20   29 1   
    24   21   22 2   
    25   21   41 1   
    26   23   24 1   
    27   23   30 1   
    28   23   31 1   
    29   24   25 1   
    30   24   32 1   
    31   24   33 1   
    32   25   26 1   
    33   25   34 1   
    34   25   35 1   
    35   26   27 1   
    36   26   36 1   
    37   26   37 1   
    38   27   38 1   
    39   27   39 1   
    40   27   40 1   
    41   41   42 1   
    42   41   49 1   
    43   42   43 1   
    44   42   45 1   
    45   42   50 1   
    46   43   44 2   
    47   43   53 1   
    48   45   46 1   
    49   45   51 1   
    50   45   52 1   
    51   46   47 1   
    52   46   48 1   
    53   53   54 1   
    54   53   57 1   
    55   54   55 1   
    56   54   58 1   
    57   54   59 1   
    58   55   56 2   
    59   55   60 1   
    60   60   61 1   
    61   60   68 1   
    62   61   62 1   
    63   61   64 1   
    64   61   69 1   
    65   62   63 2   
    66   62   74 1   
    67   64   65 1   
    68   64   70 1   
    69   64   71 1   
    70   65   66 1   
    71   65   67 2   
    72   66   72 1   
    73   66   73 1   
    74   74   75 1   
    75   74   78 1   
    76   75   76 1   
    77   75   79 1   
    78   75   80 1   
    79   76   77 2   
    80   76   81 1   
    81   81   82 1   
    82   81   93 1   
    83   82   83 1   
    84   82   85 1   
    85   82   94 1   
    86   83   84 2   
    87   83  102 1   
    88   85   86 1   
    89   85   95 1   
    90   85   96 1   
    91   86   87 ar  
    92   86   88 ar  
    93   87   89 ar  
    94   87   97 1   
    95   88   90 ar  
    96   88   98 1   
    97   89   91 ar  
    98   89   99 1   
    99   90   91 ar  
   100   90  100 1   
   101   91   92 1   
   102   92  101 1   
   103  102  103 1   
   104  102  110 1   
   105  103  104 1   
   106  103  106 1   
   107  103  111 1   
   108  104  105 2   
   109  104  121 1   
   110  106  107 1   
   111  106  108 1   
   112  106  112 1   
   113  107  109 1   
   114  107  113 1   
   115  107  114 1   
   116  108  115 1   
   117  108  116 1   
   118  108  117 1   
   119  109  118 1   
   120  109  119 1   
   121  109  120 1   
   122  121  122 1   
   123  121  127 1   
   124  122  123 1   
   125  122  125 1   
   126  122  128 1   
   127  123  124 2   
   128  123  132 1   
   129  125  126 1   
   130  125  129 1   
   131  125  130 1   
   132  126  131 1   
   133  132  133 1   
   134  132  137 1   
   135  133  134 1   
   136  133  136 1   
   137  133  138 1   
   138  134  135 2   
   139  134  142 1   
   140  136  139 1   
   141  136  140 1   
   142  136  141 1   
   143  142  143 1   
   144  142  147 1   
   145  143  144 1   
   146  143  146 1   
   147  143  148 1   
   148  144  145 2   
   149  144  152 1   
   150  146  149 1   
   151  146  150 1   
   152  146  151 1   
   153  152  153 1   
   154  152  161 1   
   155  153  154 1   
   156  153  156 1   
   157  153  162 1   
   158  154  155 2   
   159  154  167 1   
   160  156  157 1   
   161  156  163 1   
   162  156  164 1   
   163  157  158 1   
   164  157  165 1   
   165  157  166 1   
   166  158  159 1   
   167  158  160 1   
   168  167  168 1   
   169  167  172 1   
   170  168  169 1   
   171  168  170 1   
   172  168  171 1   
   173  174  176 1   
   174  174  178 1   
   175  175  177 1   
   176  175  179 1   
   177  180  181 1   
   178  180  182 1   
   179  183  184 1   
   180  183  185 1   
   181  186  187 1   
   182  186  188 1   
@<TRIPOS>SUBSTRUCTURE
     1 MOL         1 TEMP              0 ****  ****    0 ROOT
