@<TRIPOS>MOLECULE
MOL
  201   193     1     0     0
SMALL
resp


@<TRIPOS>ATOM
      1 C1        -10.4430   -7.1790   -1.3280 c3        1 MOL     -0.115290
      2 C2        -10.5300   -5.8990   -0.4570 c         1 MOL      0.670585
      3 O1        -11.5770   -5.2420   -0.5670 o         1 MOL     -0.608794
      4 H1        -11.0670   -7.0580   -2.2140 hc        1 MOL      0.017920
      5 H2         -9.4090   -7.3440   -1.6320 hc        1 MOL      0.017920
      6 H3        -10.7930   -8.0360   -0.7520 hc        1 MOL      0.017920
      7 N1         -9.5420   -5.6900    0.3970 n         1 MOL     -0.462345
      8 C3         -9.5350   -4.4950    1.3430 c3        1 MOL      0.060044
      9 C4         -8.9610   -3.2690    0.6640 c         1 MOL      0.678305
     10 O2         -8.1290   -3.3720   -0.2430 o         1 MOL     -0.657570
     11 C5         -8.8060   -4.8870    2.6450 c3        1 MOL     -0.376375
     12 C6         -7.3630   -5.5020    2.5150 c         1 MOL      0.671236
     13 O3         -6.8430   -5.4620    1.4140 o         1 MOL     -0.666322
     14 O4         -6.7350   -5.7890    3.6050 o         1 MOL     -0.666322
     15 H4         -8.7840   -6.3470    0.5070 hn        1 MOL      0.257684
     16 H5        -10.5620   -4.3230    1.6750 h1        1 MOL      0.067229
     17 H6         -9.4840   -5.6290    3.0800 hc        1 MOL      0.119021
     18 H7         -8.6920   -4.0350    3.3120 hc        1 MOL      0.119021
     19 N2         -9.4590   -2.1090    1.0510 n         1 MOL     -0.631669
     20 C7         -9.2100   -0.8090    0.4490 c3        1 MOL      0.154881
     21 C8         -8.0570    0.0040    1.0310 c         1 MOL      0.641659
     22 O5         -8.0340    0.2270    2.1900 o         1 MOL     -0.593814
     23 C9        -10.5790   -0.1220    0.5090 c3        1 MOL      0.119280
     24 C10       -10.6770    1.0610   -0.4580 c3        1 MOL     -0.311074
     25 C11       -11.8570    2.0770   -0.1630 c3        1 MOL      0.148597
     26 C12       -11.9400    3.0530   -1.3300 c3        1 MOL      0.032369
     27 N3        -12.9870    4.0510   -1.0510 n4        1 MOL     -0.303740
     28 H8        -10.1140   -2.2780    1.7960 hn        1 MOL      0.292726
     29 H9         -8.9010   -1.0370   -0.5730 h1        1 MOL      0.069378
     30 H10       -10.7680    0.2370    1.5250 hc        1 MOL      0.017464
     31 H11       -11.4140   -0.7870    0.2920 hc        1 MOL      0.017464
     32 H12       -10.8370    0.5520   -1.4110 hc        1 MOL      0.085044
     33 H13        -9.7920    1.6940   -0.3830 hc        1 MOL      0.085044
     34 H14       -11.6170    2.6170    0.7550 hc        1 MOL     -0.001931
     35 H15       -12.8430    1.6350    0.0250 hc        1 MOL     -0.001931
     36 H16       -12.1360    2.5180   -2.2620 hx        1 MOL      0.074693
     37 H17       -10.9650    3.5430   -1.3280 hx        1 MOL      0.074693
     38 H18       -13.9100    3.6500   -1.1650 hn        1 MOL      0.248885
     39 H19       -12.8290    4.6260   -0.2340 hn        1 MOL      0.248885
     40 H20       -12.9920    4.7420   -1.7910 hn        1 MOL      0.248885
     41 N4         -7.2350    0.6300    0.2370 n         1 MOL     -0.558209
     42 C13        -6.2520    1.6180    0.5330 c3        1 MOL      0.485873
     43 C14        -6.2260    2.8400   -0.4990 c         1 MOL      0.264305
     44 O6         -6.2010    2.6610   -1.6840 o         1 MOL     -0.477934
     45 C15        -4.9810    0.8010    0.6820 c3        1 MOL     -0.378365
     46 C16        -4.7440   -0.1100   -0.5760 c         1 MOL      0.911351
     47 O7         -5.1270   -1.2720   -0.5240 o         1 MOL     -0.778683
     48 O8         -4.0800    0.3560   -1.5180 o         1 MOL     -0.778683
     49 H21        -7.4140    0.3820   -0.7180 hn        1 MOL      0.217311
     50 H22        -6.5400    2.1240    1.4550 h1        1 MOL     -0.032370
     51 H23        -5.1130    0.2140    1.5920 hc        1 MOL      0.080481
     52 H24        -4.1170    1.4010    0.9410 hc        1 MOL      0.080481
     53 N5         -5.7180    4.0330   -0.1450 n         1 MOL     -0.299726
     54 C17        -5.2150    4.4650    1.1800 c3        1 MOL     -0.114912
     55 C18        -4.2220    5.5950    0.8890 c         1 MOL      0.640510
     56 O9         -4.0210    6.2340   -0.1520 o         1 MOL     -0.533641
     57 H25        -5.7450    4.7260   -0.8890 hn        1 MOL      0.267100
     58 H26        -4.7530    3.6060    1.6640 h1        1 MOL      0.076484
     59 H27        -6.0100    4.8740    1.7900 h1        1 MOL      0.076484
     60 N6         -3.4990    5.9230    1.9920 n         1 MOL     -0.583813
     61 C19        -2.3550    6.8020    2.0110 c3        1 MOL      0.225419
     62 C20        -1.0510    6.1010    1.5790 c         1 MOL      0.373421
     63 O10        -0.6810    5.0660    2.1070 o         1 MOL     -0.488719
     64 C21        -2.2140    7.2880    3.4890 c3        1 MOL     -0.208375
     65 C22        -1.2140    8.5640    3.4870 c         1 MOL      0.714719
     66 O11        -0.8030    9.0340    2.3800 o         1 MOL     -0.652803
     67 O12        -1.1090    9.2090    4.5160 o         1 MOL     -0.652803
     68 H28        -3.6850    5.3190    2.7860 hn        1 MOL      0.280227
     69 H29        -2.4620    7.6850    1.3870 h1        1 MOL      0.034794
     70 H30        -1.7150    6.5160    4.0820 hc        1 MOL      0.049499
     71 H31        -3.1570    7.6330    3.9170 hc        1 MOL      0.049499
     72 N7         -0.3930    6.6130    0.5280 n         1 MOL     -0.329535
     73 C23         0.8230    6.0790   -0.0210 c3        1 MOL     -0.027369
     74 C24         0.6200    5.0880   -1.1470 c         1 MOL      0.485344
     75 O13         0.7150    5.4680   -2.3250 o         1 MOL     -0.532051
     76 H32        -0.7410    7.4330    0.0430 hn        1 MOL      0.298442
     77 H33         1.4850    5.7180    0.7580 h1        1 MOL      0.060157
     78 H34         1.3480    6.8310   -0.6090 h1        1 MOL      0.060157
     79 N8          0.0980    3.8730   -0.7850 n         1 MOL     -0.245815
     80 C25        -0.3170    2.7990   -1.6480 c3        1 MOL     -0.229924
     81 C26         0.2270    1.4630   -1.2340 c         1 MOL      0.335942
     82 O14        -0.0070    1.1390   -0.0570 o         1 MOL     -0.496539
     83 C27        -1.8730    2.6080   -1.7410 c3        1 MOL      0.716071
     84 C28        -2.5750    3.9240   -1.9860 c3        1 MOL     -0.390094
     85 O15        -2.1580    1.6650   -2.7330 oh        1 MOL     -0.743589
     86 H35         0.0910    3.7260    0.2160 hn        1 MOL      0.238822
     87 H36        -0.0500    3.1250   -2.6570 h1        1 MOL      0.081219
     88 H37        -2.2530    2.2420   -0.7900 h1        1 MOL     -0.118352
     89 H38        -2.8530    1.1510   -2.3170 ho        1 MOL      0.492555
     90 H39        -2.1470    4.3990   -2.8650 hc        1 MOL      0.079721
     91 H40        -3.6250    3.6480   -2.0980 hc        1 MOL      0.079721
     92 H41        -2.4000    4.6700   -1.2090 hc        1 MOL      0.079721
     93 N9          0.9810    0.7650   -2.1120 n         1 MOL      0.105181
     94 C29         1.6610   -0.5140   -1.7670 c3        1 MOL     -0.445329
     95 C30         2.8980   -0.3650   -0.9130 c         1 MOL      0.517469
     96 O16         3.3660   -1.3450   -0.3070 o         1 MOL     -0.526713
     97 C31         2.0420   -1.2750   -3.0700 c3        1 MOL      0.332249
     98 C32         1.1780   -1.1080   -4.3090 c3        1 MOL     -0.294539
     99 C33         2.3380   -2.7450   -2.7300 c3        1 MOL     -0.212055
    100 C34        -0.2510   -1.4760   -4.0320 c3        1 MOL     -0.071916
    101 H42         1.1940    1.2310   -2.9740 hn        1 MOL      0.187196
    102 H43         1.0320   -1.2240   -1.2310 h1        1 MOL      0.192018
    103 H44         3.0010   -0.9130   -3.4370 hc        1 MOL     -0.053144
    104 H45         1.5190   -1.7510   -5.1190 hc        1 MOL      0.096143
    105 H46         1.0430   -0.0650   -4.5930 hc        1 MOL      0.096143
    106 H47         1.5860   -3.1460   -2.0480 hc        1 MOL      0.054081
    107 H48         2.3320   -3.4160   -3.5940 hc        1 MOL      0.054081
    108 H49         3.3090   -2.8400   -2.2470 hc        1 MOL      0.054081
    109 H50        -0.8130   -1.5240   -4.9580 hc        1 MOL      0.007024
    110 H51        -0.2340   -2.5040   -3.6460 hc        1 MOL      0.007024
    111 H52        -0.6360   -0.7800   -3.2930 hc        1 MOL      0.007024
    112 N10         3.4940    0.8260   -0.9260 n         1 MOL     -0.192778
    113 C35         4.6070    1.3510   -0.1210 c3        1 MOL     -0.050753
    114 C36         5.7450    1.9210   -1.0700 c         1 MOL      0.557669
    115 O17         5.4210    2.3980   -2.1270 o         1 MOL     -0.508522
    116 C37         4.2800    2.4790    0.9400 c3        1 MOL      0.483189
    117 C38         3.9240    3.8100    0.2800 c3        1 MOL     -0.331554
    118 O18         3.1580    2.0850    1.6860 oh        1 MOL     -0.595923
    119 H53         3.0570    1.4910   -1.5390 hn        1 MOL      0.105162
    120 H54         4.8980    0.4160    0.3610 h1        1 MOL      0.023571
    121 H55         5.1290    2.5620    1.6090 h1        1 MOL     -0.051014
    122 H56         3.3920    1.3310    2.2400 ho        1 MOL      0.382473
    123 H57         3.3850    3.6980   -0.6690 hc        1 MOL      0.081421
    124 H58         3.5350    4.4120    1.0980 hc        1 MOL      0.081421
    125 H59         4.9320    4.0950   -0.0370 hc        1 MOL      0.081421
    126 N11         7.0280    1.9460   -0.6990 n         1 MOL     -0.563210
    127 C39         8.2170    2.3200   -1.4520 c3        1 MOL      0.056449
    128 C40         9.1730    1.1820   -1.4950 c         1 MOL      0.778286
    129 O19         9.6580    1.0000   -2.5910 o         1 MOL     -0.608643
    130 C41         8.8650    3.6450   -0.9880 c3        1 MOL      0.301273
    131 C42         9.9710    4.1080   -1.8690 c3        1 MOL     -0.286492
    132 O20         9.2300    3.5980    0.3810 oh        1 MOL     -0.631366
    133 H60         7.0860    1.5880    0.2440 hn        1 MOL      0.244565
    134 H61         7.9020    2.4430   -2.4910 h1        1 MOL      0.085574
    135 H62         8.1460    4.4640   -1.0410 h1        1 MOL      0.026502
    136 H63         8.4940    3.9760    0.8540 ho        1 MOL      0.396071
    137 H64        10.8070    3.4160   -1.9790 hc        1 MOL      0.082232
    138 H65         9.5640    4.3040   -2.8560 hc        1 MOL      0.082232
    139 H66        10.4160    5.0360   -1.5140 hc        1 MOL      0.082232
    140 N12         9.4090    0.5200   -0.3260 n         1 MOL     -0.641138
    141 C43        10.3290   -0.5950   -0.1940 c3        1 MOL      0.081974
    142 C44         9.7530   -1.6490    0.6920 c         1 MOL      0.522368
    143 O21         8.8800   -1.3290    1.5100 o         1 MOL     -0.494610
    144 C45        11.7340   -0.1470    0.2790 c3        1 MOL     -0.051088
    145 C46        12.4980    0.7050   -0.7240 c3        1 MOL      0.204140
    146 C47        13.7620    1.3390   -0.0580 c3        1 MOL     -0.178322
    147 C48        14.8690    0.2770    0.1470 c3        1 MOL      0.118880
    148 N13        16.1910    0.8710    0.5520 n4        1 MOL     -0.386331
    149 H67         8.9020    0.8870    0.4590 hn        1 MOL      0.318491
    150 H68        10.4410   -0.9970   -1.1940 h1        1 MOL      0.088547
    151 H69        12.3590   -0.9380    0.7040 hc        1 MOL      0.029595
    152 H70        11.6040    0.4800    1.1730 hc        1 MOL      0.029595
    153 H71        11.8580    1.4620   -1.1940 hc        1 MOL     -0.032139
    154 H72        12.7410   -0.0360   -1.4780 hc        1 MOL     -0.032139
    155 H73        13.4440    1.7600    0.8880 hc        1 MOL      0.070358
    156 H74        14.0860    2.1560   -0.7000 hc        1 MOL      0.070358
    157 H75        15.0000   -0.3200   -0.7550 hx        1 MOL      0.055399
    158 H76        14.5300   -0.4090    0.9150 hx        1 MOL      0.055399
    159 H77        16.0600    1.1410    1.5170 hn        1 MOL      0.277663
    160 H78        16.9620    0.2290    0.6750 hn        1 MOL      0.277663
    161 H79        16.4950    1.5370   -0.1400 hn        1 MOL      0.277663
    162 N14        10.2760   -2.9010    0.5940 n         1 MOL     -0.614879
    163 C49         9.9860   -4.0270    1.5160 c3        1 MOL      0.400433
    164 C50         8.4580   -4.2440    1.6230 c         1 MOL      0.309597
    165 O22         8.1040   -4.4670    2.7810 o         1 MOL     -0.522041
    166 C51        10.7560   -5.3050    1.1600 c3        1 MOL     -0.036265
    167 C52        10.4950   -6.4770    2.1390 c3        1 MOL     -0.256937
    168 C53        11.3980   -7.6460    1.8900 c         1 MOL      0.745844
    169 O23        11.3380   -8.6490    2.6060 o         1 MOL     -0.642242
    170 O24        12.2150   -7.6890    0.9580 o         1 MOL     -0.642242
    171 H80        10.8850   -3.0430   -0.2050 hn        1 MOL      0.271831
    172 H81        10.3440   -3.7120    2.5000 h1        1 MOL      0.011167
    173 H82        11.8210   -5.0860    1.1520 hc        1 MOL     -0.004128
    174 H83        10.5060   -5.5650    0.1320 hc        1 MOL     -0.004128
    175 H84         9.4540   -6.7310    1.9010 hc        1 MOL      0.077745
    176 H85        10.4760   -6.1560    3.1800 hc        1 MOL      0.077745
    177 N15         7.6100   -4.2450    0.5920 n         1 MOL     -0.254677
    178 C54         7.8870   -4.5890   -0.7610 c3        1 MOL     -0.111528
    179 H86         7.1260   -4.1530   -1.4090 h1        1 MOL      0.071485
    180 H87         8.8670   -4.2020   -1.0410 h1        1 MOL      0.071485
    181 H88         7.8790   -5.6730   -0.8700 h1        1 MOL      0.071485
    182 H89         6.6270   -4.2150    0.8130 hn        1 MOL      0.281846
    183 Ca1        -5.6010   -3.8890   -0.1890 Ca        1 MOL      1.713116
    184 O25        -3.6250   -3.8080    1.5630 oh        1 MOL     -0.818636
    185 H90        -3.7430   -3.1780    2.2760 ho        1 MOL      0.414508
    186 H91        -3.0510   -4.4760    1.9340 ho        1 MOL      0.414508
    187 O26        -4.1560   -6.2330   -0.0690 oh        1 MOL     -0.818636
    188 H92        -4.5380   -6.9920   -0.5140 ho        1 MOL      0.414508
    189 H93        -3.2070   -6.3390   -0.1890 ho        1 MOL      0.414508
    190 O27        -3.2960   -3.4450   -1.6010 oh        1 MOL     -0.818636
    191 H94        -3.0770   -3.3130   -2.5180 ho        1 MOL      0.414508
    192 H95        -2.6790   -2.8780   -1.1280 ho        1 MOL      0.414508
    193 O28        -6.2300   -2.4610    2.1790 oh        1 MOL     -0.818636
    194 H96        -5.5120   -2.4110    2.8160 ho        1 MOL      0.414508
    195 H97        -6.8350   -1.7700    2.4510 ho        1 MOL      0.414508
    196 O29        -6.2000   -5.8710   -2.1680 oh        1 MOL     -0.818636
    197 H98        -5.8380   -6.7600   -2.1440 ho        1 MOL      0.414508
    198 H99        -6.7990   -5.8820   -2.9170 ho        1 MOL      0.414508
    199 O30        -6.5920   -3.0740   -2.7230 oh        1 MOL     -0.818636
    200 H100       -7.2130   -3.3910   -3.3810 ho        1 MOL      0.414508
    201 H101       -6.1540   -2.3250   -3.1420 ho        1 MOL      0.414508
@<TRIPOS>BOND
     1    1    2 1   
     2    1    4 1   
     3    1    5 1   
     4    1    6 1   
     5    2    3 2   
     6    2    7 1   
     7    7    8 1   
     8    7   15 1   
     9    8    9 1   
    10    8   11 1   
    11    8   16 1   
    12    9   10 2   
    13    9   19 1   
    14   11   12 1   
    15   11   17 1   
    16   11   18 1   
    17   12   13 1   
    18   12   14 1   
    19   19   20 1   
    20   19   28 1   
    21   20   21 1   
    22   20   23 1   
    23   20   29 1   
    24   21   22 2   
    25   21   41 1   
    26   23   24 1   
    27   23   30 1   
    28   23   31 1   
    29   24   25 1   
    30   24   32 1   
    31   24   33 1   
    32   25   26 1   
    33   25   34 1   
    34   25   35 1   
    35   26   27 1   
    36   26   36 1   
    37   26   37 1   
    38   27   38 1   
    39   27   39 1   
    40   27   40 1   
    41   41   42 1   
    42   41   49 1   
    43   42   43 1   
    44   42   45 1   
    45   42   50 1   
    46   43   44 2   
    47   43   53 1   
    48   45   46 1   
    49   45   51 1   
    50   45   52 1   
    51   46   47 1   
    52   46   48 1   
    53   53   54 1   
    54   53   57 1   
    55   54   55 1   
    56   54   58 1   
    57   54   59 1   
    58   55   56 2   
    59   55   60 1   
    60   60   61 1   
    61   60   68 1   
    62   61   62 1   
    63   61   64 1   
    64   61   69 1   
    65   62   63 2   
    66   62   72 1   
    67   64   65 1   
    68   64   70 1   
    69   64   71 1   
    70   65   66 1   
    71   65   67 1   
    72   72   73 1   
    73   72   76 1   
    74   73   74 1   
    75   73   77 1   
    76   73   78 1   
    77   74   75 2   
    78   74   79 1   
    79   79   80 1   
    80   79   86 1   
    81   80   81 1   
    82   80   83 1   
    83   80   87 1   
    84   81   82 2   
    85   81   93 1   
    86   83   84 1   
    87   83   85 1   
    88   83   88 1   
    89   84   90 1   
    90   84   91 1   
    91   84   92 1   
    92   85   89 1   
    93   93   94 1   
    94   93  101 1   
    95   94   95 1   
    96   94   97 1   
    97   94  102 1   
    98   95   96 2   
    99   95  112 1   
   100   97   98 1   
   101   97   99 1   
   102   97  103 1   
   103   98  100 1   
   104   98  104 1   
   105   98  105 1   
   106   99  106 1   
   107   99  107 1   
   108   99  108 1   
   109  100  109 1   
   110  100  110 1   
   111  100  111 1   
   112  112  113 1   
   113  112  119 1   
   114  113  114 1   
   115  113  116 1   
   116  113  120 1   
   117  114  115 2   
   118  114  126 1   
   119  116  117 1   
   120  116  118 1   
   121  116  121 1   
   122  117  123 1   
   123  117  124 1   
   124  117  125 1   
   125  118  122 1   
   126  126  127 1   
   127  126  133 1   
   128  127  128 1   
   129  127  130 1   
   130  127  134 1   
   131  128  129 2   
   132  128  140 1   
   133  130  131 1   
   134  130  132 1   
   135  130  135 1   
   136  131  137 1   
   137  131  138 1   
   138  131  139 1   
   139  132  136 1   
   140  140  141 1   
   141  140  149 1   
   142  141  142 1   
   143  141  144 1   
   144  141  150 1   
   145  142  143 2   
   146  142  162 1   
   147  144  145 1   
   148  144  151 1   
   149  144  152 1   
   150  145  146 1   
   151  145  153 1   
   152  145  154 1   
   153  146  147 1   
   154  146  155 1   
   155  146  156 1   
   156  147  148 1   
   157  147  157 1   
   158  147  158 1   
   159  148  159 1   
   160  148  160 1   
   161  148  161 1   
   162  162  163 1   
   163  162  171 1   
   164  163  164 1   
   165  163  166 1   
   166  163  172 1   
   167  164  165 2   
   168  164  177 1   
   169  166  167 1   
   170  166  173 1   
   171  166  174 1   
   172  167  168 1   
   173  167  175 1   
   174  167  176 1   
   175  168  169 1   
   176  168  170 1   
   177  177  178 1   
   178  177  182 1   
   179  178  179 1   
   180  178  180 1   
   181  178  181 1   
   182  184  185 1   
   183  184  186 1   
   184  187  188 1   
   185  187  189 1   
   186  190  191 1   
   187  190  192 1   
   188  193  194 1   
   189  193  195 1   
   190  196  197 1   
   191  196  198 1   
   192  199  200 1   
   193  199  201 1   
@<TRIPOS>SUBSTRUCTURE
     1 MOL         1 TEMP              0 ****  ****    0 ROOT
