@<TRIPOS>MOLECULE
MOL
  181   177     1     0     0
SMALL
resp


@<TRIPOS>ATOM
      1 C1          2.3560    7.7120   -1.7010 c3        1 MOL     -0.404406
      2 C2          3.6630    7.2120   -1.0040 c         1 MOL      0.623864
      3 O1          3.9810    7.6510    0.1340 o         1 MOL     -0.575800
      4 H1          2.4020    7.4830   -2.7660 hc        1 MOL      0.107075
      5 H2          1.4940    7.2110   -1.2600 hc        1 MOL      0.107075
      6 H3          2.2600    8.7890   -1.5660 hc        1 MOL      0.107075
      7 N1          4.5170    6.3840   -1.6770 n         1 MOL     -0.577131
      8 C3          5.7570    5.8680   -1.1450 c3        1 MOL      0.328362
      9 C4          5.4540    4.6290   -0.2900 c         1 MOL      0.551541
     10 O2          5.6750    3.5310   -0.6550 o         1 MOL     -0.507250
     11 C5          6.7300    5.5520   -2.2840 c3        1 MOL     -0.327808
     12 C6          8.1920    5.3670   -1.7490 c         1 MOL      0.729311
     13 O3          9.1990    5.6400   -2.4920 o         1 MOL     -0.728740
     14 O4          8.3740    5.0830   -0.5530 o         1 MOL     -0.728740
     15 H4          4.2550    6.1460   -2.6240 hn        1 MOL      0.311313
     16 H5          6.2240    6.6420   -0.5340 h1        1 MOL      0.033708
     17 H6          6.7540    6.2580   -3.1140 hc        1 MOL      0.026957
     18 H7          6.4140    4.6550   -2.8040 hc        1 MOL      0.026957
     19 N2          4.7750    4.8980    0.8370 n         1 MOL     -0.740597
     20 C7          4.6710    3.8790    1.8820 c3        1 MOL      0.747498
     21 C8          3.2420    3.4770    2.0310 c         1 MOL      0.329324
     22 O5          2.2810    4.2150    1.9310 o         1 MOL     -0.584401
     23 C9          5.4600    4.3450    3.0930 c3        1 MOL     -0.472378
     24 H8          4.7120    5.8710    1.1070 hn        1 MOL      0.314854
     25 H9          5.1690    2.9600    1.5620 h1        1 MOL     -0.072012
     26 H10         6.5150    4.5590    2.8920 hc        1 MOL      0.103584
     27 H11         5.0770    5.2880    3.4880 hc        1 MOL      0.103584
     28 H12         5.3560    3.6410    3.9210 hc        1 MOL      0.103584
     29 N3          2.9150    2.3290    2.6430 n         1 MOL     -0.253250
     30 C10         3.8730    1.3290    3.2110 c3        1 MOL     -0.016767
     31 C11         4.2460    0.1960    2.2850 c         1 MOL      0.409843
     32 O6          3.4910   -0.0840    1.3300 o         1 MOL     -0.495356
     33 C12         3.2470    0.8320    4.4910 c3        1 MOL     -0.347024
     34 C13         1.7360    0.4040    4.4180 c         1 MOL      0.659946
     35 O7          1.1980    0.2510    3.3320 o         1 MOL     -0.647079
     36 O8          1.1670    0.3840    5.5140 o         1 MOL     -0.647079
     37 H13         1.9250    2.1900    2.7810 hn        1 MOL      0.282920
     38 H14         4.7770    1.8060    3.5700 h1        1 MOL      0.049799
     39 H15         3.2370    1.7300    5.1160 hc        1 MOL      0.080146
     40 H16         3.7780   -0.0040    4.9430 hc        1 MOL      0.080146
     41 N4          5.3590   -0.4620    2.6190 n         1 MOL     -0.396139
     42 C14         6.0100   -1.5600    1.8570 c3        1 MOL      0.070324
     43 C15         6.8330   -1.0590    0.6130 c         1 MOL      0.500313
     44 O9          7.0690    0.0960    0.4330 o         1 MOL     -0.448018
     45 H17         5.9860    0.0280    3.2330 hn        1 MOL      0.281007
     46 H18         5.1870   -2.2420    1.6380 h1        1 MOL      0.025021
     47 H19         6.7770   -2.1280    2.3870 h1        1 MOL      0.025021
     48 N5          7.2970   -1.9500   -0.2570 n         1 MOL     -0.523808
     49 C16         7.1940   -3.4160   -0.2490 c3        1 MOL      0.266014
     50 C17         5.8500   -3.8850   -0.9110 c         1 MOL      0.508464
     51 O10         5.5950   -5.0800   -0.9460 o         1 MOL     -0.579921
     52 C18         8.3510   -4.1030   -0.9860 c3        1 MOL     -0.319865
     53 C19         8.2950   -3.7800   -2.4250 c         1 MOL      0.634775
     54 N6          8.2180   -4.7900   -3.2460 n         1 MOL     -0.697030
     55 O11         8.2570   -2.6180   -2.8390 o         1 MOL     -0.532163
     56 H20         7.8570   -1.6020   -1.0300 hn        1 MOL      0.294503
     57 H21         7.1960   -3.8160    0.7660 h1        1 MOL      0.029212
     58 H22         8.2340   -5.1820   -0.8730 hc        1 MOL      0.096454
     59 H23         9.2870   -3.7640   -0.5390 hc        1 MOL      0.096454
     60 H24         8.3700   -5.7430   -2.9270 hn        1 MOL      0.341470
     61 H25         8.2760   -4.6820   -4.2450 hn        1 MOL      0.341470
     62 N7          4.9900   -3.0560   -1.4360 n         1 MOL     -0.449348
     63 C20         4.0710   -3.4170   -2.5030 c3        1 MOL     -0.098150
     64 C21         2.6440   -3.7370   -2.1110 c         1 MOL      0.440602
     65 O12         1.6980   -3.2060   -2.7350 o         1 MOL     -0.547875
     66 H26         5.2350   -2.0820   -1.3910 hn        1 MOL      0.331529
     67 H27         4.5390   -4.2150   -3.0770 h1        1 MOL      0.110363
     68 H28         4.0170   -2.5500   -3.1620 h1        1 MOL      0.110363
     69 N8          2.5270   -4.5780   -1.1470 n         1 MOL     -0.372749
     70 C22         1.2050   -5.2410   -0.9250 c3        1 MOL     -0.114005
     71 C23         0.1320   -4.2430   -0.5790 c         1 MOL      0.697347
     72 O13         0.4270   -3.2610    0.0840 o         1 MOL     -0.628592
     73 C24         1.2980   -6.5060   -0.0420 c3        1 MOL      0.416222
     74 C25         2.0520   -7.7160   -0.5920 c3        1 MOL     -0.288121
     75 O14         2.0700   -6.1460    1.0770 oh        1 MOL     -0.605603
     76 H29         3.3450   -4.9270   -0.6670 hn        1 MOL      0.342334
     77 H30         1.0090   -5.6390   -1.9230 h1        1 MOL      0.091340
     78 H31         0.3270   -6.8880    0.2800 h1        1 MOL      0.015753
     79 H32         1.4350   -5.7600    1.6800 ho        1 MOL      0.380783
     80 H33         3.1090   -7.5060   -0.7500 hc        1 MOL      0.071390
     81 H34         1.9230   -8.5830    0.0570 hc        1 MOL      0.071390
     82 H35         1.5170   -7.9390   -1.5120 hc        1 MOL      0.071390
     83 N9         -1.1020   -4.5230   -1.0670 n         1 MOL     -0.611028
     84 C26        -2.2530   -3.6160   -1.1210 c3        1 MOL      0.082849
     85 C27        -3.0900   -3.7590    0.1330 c         1 MOL      0.504818
     86 O15        -3.4040   -4.9080    0.5400 o         1 MOL     -0.604150
     87 C28        -3.0710   -3.8650   -2.4150 c3        1 MOL      0.216290
     88 C29        -4.1460   -2.7650   -2.7010 c3        1 MOL     -0.090515
     89 C30        -2.1180   -4.0950   -3.6300 c3        1 MOL     -0.411225
     90 C31        -5.5020   -3.0260   -2.0570 c3        1 MOL     -0.083819
     91 H36        -1.1650   -5.3930   -1.5760 hn        1 MOL      0.262752
     92 H37        -1.8010   -2.6310   -1.2560 h1        1 MOL      0.214905
     93 H38        -3.5470   -4.8270   -2.2660 hc        1 MOL     -0.000940
     94 H39        -4.3790   -2.6060   -3.7500 hc        1 MOL      0.042717
     95 H40        -3.7850   -1.8240   -2.2700 hc        1 MOL      0.042717
     96 H41        -1.4290   -4.9030   -3.4120 hc        1 MOL      0.090777
     97 H42        -2.8060   -4.4680   -4.3920 hc        1 MOL      0.090777
     98 H43        -1.6530   -3.1270   -3.8450 hc        1 MOL      0.090777
     99 H44        -5.3230   -3.5340   -1.1200 hc        1 MOL     -0.002276
    100 H45        -6.0870   -2.1090   -1.9600 hc        1 MOL     -0.002276
    101 H46        -6.0310   -3.6720   -2.7530 hc        1 MOL     -0.002276
    102 N10        -3.3900   -2.6350    0.7670 n         1 MOL      0.101441
    103 C32        -4.1330   -2.5720    2.0760 c3        1 MOL      0.004699
    104 C33        -5.4190   -1.7610    1.9800 c         1 MOL      0.260952
    105 O16        -6.2880   -2.0630    2.8230 o         1 MOL     -0.543740
    106 C34        -3.2570   -1.9230    3.1740 c3        1 MOL      0.110473
    107 C35        -1.8840   -2.5850    3.2380 c         1 MOL      0.559719
    108 O17        -0.8810   -2.2860    2.5270 o         1 MOL     -0.682961
    109 O18        -1.8030   -3.4510    4.1440 o         1 MOL     -0.682961
    110 H47        -3.0210   -1.7610    0.4270 hn        1 MOL     -0.216449
    111 H48        -4.3010   -3.6210    2.3530 h1        1 MOL      0.074120
    112 H49        -3.7790   -2.1230    4.1200 hc        1 MOL     -0.005031
    113 H50        -3.1330   -0.8770    2.9160 hc        1 MOL     -0.005031
    114 N11        -5.6340   -0.8660    1.0900 n         1 MOL     -0.154693
    115 C36        -6.8240    0.0050    1.0020 c3        1 MOL      0.200365
    116 C37        -6.4780    1.3970    0.3320 c         1 MOL      0.327270
    117 O19        -6.9750    1.6530   -0.7580 o         1 MOL     -0.432495
    118 C38        -7.9030   -0.7770    0.2990 c3        1 MOL     -0.215451
    119 C39        -9.3040   -0.1030    0.2070 ca        1 MOL      0.058840
    120 C40        -9.9150    0.3900    1.3830 ca        1 MOL     -0.115887
    121 C41        -9.8730    0.2640   -1.0240 ca        1 MOL     -0.115887
    122 C42       -11.1090    1.0700    1.3700 ca        1 MOL     -0.151289
    123 C43       -11.0770    1.0360   -1.1090 ca        1 MOL     -0.151289
    124 C44       -11.6770    1.4130    0.0770 ca        1 MOL     -0.108589
    125 H51        -4.8930   -0.7960    0.4090 hn        1 MOL      0.241330
    126 H52        -7.1490    0.1320    2.0380 h1        1 MOL      0.023759
    127 H53        -8.0030   -1.7740    0.7320 hc        1 MOL      0.084416
    128 H54        -7.5830   -0.9190   -0.7280 hc        1 MOL      0.084416
    129 H55        -9.3670    0.2190    2.3030 ha        1 MOL      0.107229
    130 H56        -9.3320   -0.0420   -1.9120 ha        1 MOL      0.107229
    131 H57       -11.5360    1.2860    2.3390 ha        1 MOL      0.115898
    132 H58       -11.3820    1.3550   -2.0890 ha        1 MOL      0.115898
    133 H59       -12.5380    2.0630    0.0540 ha        1 MOL      0.091670
    134 N12        -5.6170    2.1940    0.9720 n         1 MOL     -0.105345
    135 C45        -5.2750    3.5390    0.4770 c3        1 MOL     -0.190935
    136 C46        -4.6200    3.7030   -0.8810 c         1 MOL      0.286833
    137 O20        -4.5800    4.7950   -1.4520 o         1 MOL     -0.467063
    138 C47        -4.4500    4.2640    1.5830 c3        1 MOL      0.065800
    139 C48        -4.6350    3.3650    2.7860 c3        1 MOL     -0.109060
    140 C49        -4.8540    1.9390    2.2210 c3        1 MOL     -0.133809
    141 H60        -6.2120    4.0970    0.4700 h1        1 MOL      0.139074
    142 H61        -3.4040    4.4860    1.3910 hc        1 MOL      0.039524
    143 H62        -4.7940    5.2720    1.8150 hc        1 MOL      0.039524
    144 H63        -3.8750    3.5380    3.5400 hc        1 MOL      0.051109
    145 H64        -5.5690    3.6000    3.2990 hc        1 MOL      0.051109
    146 H65        -3.8600    1.6640    1.8700 h1        1 MOL      0.113954
    147 H66        -5.2370    1.1780    2.9050 h1        1 MOL      0.113954
    148 N13        -4.2370    2.5370   -1.4610 n         1 MOL     -0.161190
    149 C50        -3.7890    2.4230   -2.8780 c3        1 MOL     -0.030446
    150 C51        -4.8430    2.9350   -3.8670 c         1 MOL      0.426468
    151 O21        -4.6380    3.7480   -4.7860 o         1 MOL     -0.536826
    152 C52        -3.3810    0.9740   -3.2340 c3        1 MOL     -0.102739
    153 C53        -2.0750    0.4670   -2.4330 c3        1 MOL     -0.162011
    154 C54        -2.2490    0.0030   -0.9500 c         1 MOL      0.530542
    155 O22        -1.3070   -0.5440   -0.4000 o         1 MOL     -0.679861
    156 O23        -3.2950    0.1000   -0.3180 o         1 MOL     -0.679861
    157 H67        -4.4650    1.6660   -0.9880 hn        1 MOL      0.296117
    158 H68        -2.9570    3.1240   -2.9470 h1        1 MOL      0.091114
    159 H69        -3.1520    1.0090   -4.3010 hc        1 MOL      0.033747
    160 H70        -4.2170    0.2770   -3.1240 hc        1 MOL      0.033747
    161 H71        -1.3160    1.2380   -2.3640 hc        1 MOL      0.074306
    162 H72        -1.6200   -0.3830   -2.9600 hc        1 MOL      0.074306
    163 N14        -6.0630    2.4610   -3.6500 n         1 MOL     -0.077579
    164 C55        -7.1820    2.8870   -4.4220 c3        1 MOL     -0.437251
    165 H73        -7.0540    2.5650   -5.4550 h1        1 MOL      0.143960
    166 H74        -8.0930    2.4470   -4.0150 h1        1 MOL      0.143960
    167 H75        -7.2550    3.9740   -4.3860 h1        1 MOL      0.143960
    168 H76        -6.1580    1.8780   -2.8260 hn        1 MOL      0.171250
    169 Ca1         0.7240   -0.8270    1.1360 Ca        1 MOL      1.738573
    170 O24         0.9390    2.0430    0.1220 oh        1 MOL     -0.811223
    171 H77         0.2030    2.5150    0.4920 ho        1 MOL      0.405566
    172 H78         1.4050    2.6910   -0.4070 ho        1 MOL      0.405566
    173 O25        -1.5420    0.8770    2.0740 oh        1 MOL     -0.811223
    174 H79        -2.0830    0.5250    1.3760 ho        1 MOL      0.405566
    175 H80        -1.6190    1.8270    1.9850 ho        1 MOL      0.405566
    176 O26         1.9700   -0.8060   -1.2650 oh        1 MOL     -0.811223
    177 H81         1.7280   -1.3010   -2.0400 ho        1 MOL      0.405566
    178 H82         2.7430   -0.2980   -1.5340 ho        1 MOL      0.405566
    179 O27         2.4020   -2.5060    2.3730 oh        1 MOL     -0.811223
    180 H83         2.9920   -2.4630    3.1150 ho        1 MOL      0.405566
    181 H84         1.8840   -3.2990    2.5170 ho        1 MOL      0.405566
@<TRIPOS>BOND
     1    1    2 1   
     2    1    4 1   
     3    1    5 1   
     4    1    6 1   
     5    2    3 2   
     6    2    7 1   
     7    7    8 1   
     8    7   15 1   
     9    8    9 1   
    10    8   11 1   
    11    8   16 1   
    12    9   10 2   
    13    9   19 1   
    14   11   12 1   
    15   11   17 1   
    16   11   18 1   
    17   12   13 1   
    18   12   14 1   
    19   19   20 1   
    20   19   24 1   
    21   20   21 1   
    22   20   23 1   
    23   20   25 1   
    24   21   22 2   
    25   21   29 1   
    26   23   26 1   
    27   23   27 1   
    28   23   28 1   
    29   29   30 1   
    30   29   37 1   
    31   30   31 1   
    32   30   33 1   
    33   30   38 1   
    34   31   32 2   
    35   31   41 1   
    36   33   34 1   
    37   33   39 1   
    38   33   40 1   
    39   34   35 1   
    40   34   36 1   
    41   41   42 1   
    42   41   45 1   
    43   42   43 1   
    44   42   46 1   
    45   42   47 1   
    46   43   44 2   
    47   43   48 1   
    48   48   49 1   
    49   48   56 1   
    50   49   50 1   
    51   49   52 1   
    52   49   57 1   
    53   50   51 2   
    54   50   62 1   
    55   52   53 1   
    56   52   58 1   
    57   52   59 1   
    58   53   54 1   
    59   53   55 2   
    60   54   60 1   
    61   54   61 1   
    62   62   63 1   
    63   62   66 1   
    64   63   64 1   
    65   63   67 1   
    66   63   68 1   
    67   64   65 2   
    68   64   69 1   
    69   69   70 1   
    70   69   76 1   
    71   70   71 1   
    72   70   73 1   
    73   70   77 1   
    74   71   72 2   
    75   71   83 1   
    76   73   74 1   
    77   73   75 1   
    78   73   78 1   
    79   74   80 1   
    80   74   81 1   
    81   74   82 1   
    82   75   79 1   
    83   83   84 1   
    84   83   91 1   
    85   84   85 1   
    86   84   87 1   
    87   84   92 1   
    88   85   86 2   
    89   85  102 1   
    90   87   88 1   
    91   87   89 1   
    92   87   93 1   
    93   88   90 1   
    94   88   94 1   
    95   88   95 1   
    96   89   96 1   
    97   89   97 1   
    98   89   98 1   
    99   90   99 1   
   100   90  100 1   
   101   90  101 1   
   102  102  103 1   
   103  102  110 1   
   104  103  104 1   
   105  103  106 1   
   106  103  111 1   
   107  104  105 2   
   108  104  114 1   
   109  106  107 1   
   110  106  112 1   
   111  106  113 1   
   112  107  108 1   
   113  107  109 1   
   114  114  115 1   
   115  114  125 1   
   116  115  116 1   
   117  115  118 1   
   118  115  126 1   
   119  116  117 2   
   120  116  134 1   
   121  118  119 1   
   122  118  127 1   
   123  118  128 1   
   124  119  120 ar  
   125  119  121 ar  
   126  120  122 ar  
   127  120  129 1   
   128  121  123 ar  
   129  121  130 1   
   130  122  124 ar  
   131  122  131 1   
   132  123  124 ar  
   133  123  132 1   
   134  124  133 1   
   135  134  135 1   
   136  134  140 1   
   137  135  136 1   
   138  135  138 1   
   139  135  141 1   
   140  136  137 2   
   141  136  148 1   
   142  138  139 1   
   143  138  142 1   
   144  138  143 1   
   145  139  140 1   
   146  139  144 1   
   147  139  145 1   
   148  140  146 1   
   149  140  147 1   
   150  148  149 1   
   151  148  157 1   
   152  149  150 1   
   153  149  152 1   
   154  149  158 1   
   155  150  151 2   
   156  150  163 1   
   157  152  153 1   
   158  152  159 1   
   159  152  160 1   
   160  153  154 1   
   161  153  161 1   
   162  153  162 1   
   163  154  155 1   
   164  154  156 1   
   165  163  164 1   
   166  163  168 1   
   167  164  165 1   
   168  164  166 1   
   169  164  167 1   
   170  170  171 1   
   171  170  172 1   
   172  173  174 1   
   173  173  175 1   
   174  176  177 1   
   175  176  178 1   
   176  179  180 1   
   177  179  181 1   
@<TRIPOS>SUBSTRUCTURE
     1 MOL         1 TEMP              0 ****  ****    0 ROOT
