@<TRIPOS>MOLECULE
MOL
  179   176     1     0     0
SMALL
resp


@<TRIPOS>ATOM
      1 C1          2.2970   -4.3440    6.2270 c3        1 MOL     -0.319054
      2 C2          2.1850   -4.1310    4.7310 c         1 MOL      0.763543
      3 O1          1.2920   -4.6340    4.1030 o         1 MOL     -0.564704
      4 H1          2.9570   -3.5870    6.6520 hc        1 MOL      0.077289
      5 H2          1.3090   -4.2600    6.6810 hc        1 MOL      0.077289
      6 H3          2.7050   -5.3350    6.4250 hc        1 MOL      0.077289
      7 N1          3.1710   -3.3650    4.1720 n         1 MOL     -0.516867
      8 C3          3.1650   -2.8800    2.8080 c3        1 MOL     -0.390868
      9 C4          3.8210   -4.0050    1.9370 c         1 MOL      0.817036
     10 O2          4.8520   -4.5420    2.1820 o         1 MOL     -0.584584
     11 C5          4.0310   -1.5820    2.7550 c3        1 MOL      0.124946
     12 C6          3.8200   -0.7870    1.4490 c         1 MOL      0.330288
     13 O3          3.8290    0.4190    1.4550 o         1 MOL     -0.598170
     14 O4          3.5840   -1.3930    0.3880 o         1 MOL     -0.598170
     15 H4          3.9490   -3.0210    4.7300 hn        1 MOL      0.314467
     16 H5          2.1430   -2.7640    2.4600 h1        1 MOL      0.131399
     17 H6          5.0640   -1.9010    2.7550 hc        1 MOL      0.022934
     18 H7          3.8260   -0.9160    3.5920 hc        1 MOL      0.022934
     19 N2          3.1820   -4.3010    0.7730 n         1 MOL     -0.545128
     20 C7          3.6880   -5.3710   -0.1510 c3        1 MOL      0.147478
     21 C8          4.8110   -4.7870   -0.9920 c         1 MOL      0.417654
     22 O5          5.3730   -5.6570   -1.6900 o         1 MOL     -0.576537
     23 C9          2.4730   -6.0260   -0.7860 c3        1 MOL     -0.033636
     24 C10         1.6250   -5.1470   -1.7970 c3        1 MOL     -0.088663
     25 C11         0.7160   -6.0890   -2.6310 c3        1 MOL     -0.095874
     26 C12        -0.0770   -5.3730   -3.6720 c3        1 MOL      0.129040
     27 N3         -1.1520   -6.2980   -4.2460 n4        1 MOL     -0.202036
     28 H8          2.3580   -3.7680    0.5620 hn        1 MOL      0.198677
     29 H9          4.1370   -6.1550    0.4710 h1        1 MOL      0.097452
     30 H10         1.8420   -6.4750   -0.0130 hc        1 MOL      0.026832
     31 H11         2.8970   -6.9110   -1.2670 hc        1 MOL      0.026832
     32 H12         2.3090   -4.5660   -2.4220 hc        1 MOL      0.075424
     33 H13         1.0720   -4.4740   -1.1500 hc        1 MOL      0.075424
     34 H14        -0.0530   -6.5430   -2.0090 hc        1 MOL      0.051023
     35 H15         1.2420   -6.8530   -3.1880 hc        1 MOL      0.051023
     36 H16         0.5230   -5.0430   -4.5260 hx        1 MOL      0.035311
     37 H17        -0.6230   -4.5700   -3.1780 hx        1 MOL      0.035311
     38 H18        -1.6590   -6.8420   -3.5610 hn        1 MOL      0.255808
     39 H19        -1.7450   -5.7270   -4.8300 hn        1 MOL      0.255808
     40 H20        -0.6360   -6.9730   -4.7770 hn        1 MOL      0.255808
     41 N4          5.1400   -3.5350   -1.0040 n         1 MOL     -0.266110
     42 C13         6.1420   -2.9600   -1.9150 c3        1 MOL      0.162304
     43 C14         7.1530   -2.1130   -1.1320 c         1 MOL      0.282423
     44 O6          8.3190   -2.0410   -1.4510 o         1 MOL     -0.503186
     45 C15         5.4360   -2.2090   -3.1100 c3        1 MOL     -0.417102
     46 C16         4.4440   -1.2540   -2.5470 c         1 MOL      0.992651
     47 O7          3.2200   -1.5390   -2.5100 o         1 MOL     -0.889824
     48 O8          4.8530   -0.1100   -2.2390 o         1 MOL     -0.889824
     49 H21         4.5050   -2.9650   -0.4600 hn        1 MOL      0.288293
     50 H22         6.7600   -3.7480   -2.3550 h1        1 MOL      0.094886
     51 H23         5.0390   -2.9180   -3.8420 hc        1 MOL      0.119153
     52 H24         6.2060   -1.5600   -3.5180 hc        1 MOL      0.119153
     53 N5          6.8350   -1.5680    0.0310 n         1 MOL      0.072196
     54 C17         7.5790   -0.6960    0.8860 c3        1 MOL     -0.316858
     55 C18         7.6560    0.7540    0.4520 c         1 MOL      0.558063
     56 O9          8.4240    1.5040    1.1090 o         1 MOL     -0.541954
     57 H25         5.9360   -1.9150    0.3440 hn        1 MOL     -0.024534
     58 H26         8.6120   -1.0260    0.9640 h1        1 MOL      0.151233
     59 H27         7.0930   -0.7430    1.8620 h1        1 MOL      0.151233
     60 N6          6.9450    1.1780   -0.6200 n         1 MOL     -0.282618
     61 C19         6.8300    2.5490   -0.9940 c3        1 MOL      0.009267
     62 C20         5.3790    3.1790   -0.9340 c         1 MOL      0.780201
     63 O10         4.4450    2.4920   -0.6880 o         1 MOL     -0.643721
     64 C21         7.3780    2.7750   -2.3700 c3        1 MOL     -0.039360
     65 C22         8.7200    2.1000   -2.6570 c         1 MOL      0.598164
     66 N7          8.8130    1.3350   -3.7230 n         1 MOL     -0.853556
     67 O11         9.6650    2.3550   -1.9370 o         1 MOL     -0.511559
     68 H28         6.5050    0.3790   -1.0420 hn        1 MOL      0.298389
     69 H29         7.5480    3.0690   -0.3640 h1        1 MOL      0.051085
     70 H30         7.4760    3.8530   -2.4780 hc        1 MOL     -0.003679
     71 H31         6.7030    2.5030   -3.1890 hc        1 MOL     -0.003679
     72 H32         7.9910    1.1230   -4.2670 hn        1 MOL      0.399113
     73 H33         9.7510    1.0140   -3.9150 hn        1 MOL      0.399113
     74 N8          5.2340    4.5140   -1.3430 n         1 MOL     -0.733032
     75 C23         3.8940    5.1270   -1.5110 c3        1 MOL      0.097938
     76 C24         2.9760    5.2510   -0.2750 c         1 MOL      0.559914
     77 O12         3.4450    5.2730    0.8330 o         1 MOL     -0.471614
     78 H34         5.9810    5.1000   -1.6970 hn        1 MOL      0.406630
     79 H35         3.3900    4.5390   -2.2800 h1        1 MOL      0.037137
     80 H36         4.0360    6.0610   -2.0510 h1        1 MOL      0.037137
     81 N9          1.6690    5.1770   -0.4980 n         1 MOL     -0.688560
     82 C25         0.7580    4.8010    0.6330 c3        1 MOL      0.510062
     83 C26         0.9650    3.3580    1.1470 c         1 MOL      0.322236
     84 O13         1.7830    2.6010    0.6840 o         1 MOL     -0.363342
     85 C27        -0.6560    5.1680    0.3360 c3        1 MOL     -0.235787
     86 C28        -0.9840    6.6360    0.1250 ca        1 MOL      0.121294
     87 C29        -1.7700    6.9410   -1.0390 ca        1 MOL     -0.236871
     88 C30        -0.5500    7.7060    1.0120 ca        1 MOL     -0.236871
     89 C31        -2.3140    8.2300   -1.1910 ca        1 MOL     -0.152036
     90 C32        -1.0670    8.9970    0.7880 ca        1 MOL     -0.152036
     91 C33        -2.0080    9.2480   -0.2830 ca        1 MOL      0.215868
     92 O14        -2.5050   10.5050   -0.3600 oh        1 MOL     -0.430156
     93 H37         1.3450    5.2080   -1.4480 hn        1 MOL      0.293775
     94 H38         1.0150    5.5300    1.4070 h1        1 MOL      0.017632
     95 H39        -1.3090    4.8990    1.1600 hc        1 MOL      0.040796
     96 H40        -0.9430    4.6240   -0.5620 hc        1 MOL      0.040796
     97 H41        -2.0740    6.1400   -1.6820 ha        1 MOL      0.157392
     98 H42         0.1120    7.4850    1.8450 ha        1 MOL      0.157392
     99 H43        -2.9600    8.3910   -2.0480 ha        1 MOL      0.136512
    100 H44        -0.8830    9.8410    1.4370 ha        1 MOL      0.136512
    101 H45        -3.2200   10.6170   -1.0010 ho        1 MOL      0.360625
    102 N10         0.1390    2.9350    2.1360 n         1 MOL     -0.567778
    103 C34        -0.1410    1.5490    2.6210 c3        1 MOL      0.049256
    104 C35        -0.3220    0.4550    1.5210 c         1 MOL      0.305882
    105 O15         0.5870    0.2150    0.7090 o         1 MOL     -0.346972
    106 C36         0.9500    1.1390    3.6470 c3        1 MOL      0.392903
    107 C37         0.8850   -0.2540    4.2910 c3        1 MOL     -0.268882
    108 C38         1.0750    2.2400    4.7160 c3        1 MOL     -0.356909
    109 C39        -0.4010   -0.6900    4.9600 c3        1 MOL     -0.131887
    110 H46        -0.3650    3.6760    2.6070 hn        1 MOL      0.302563
    111 H47        -1.0470    1.6920    3.2130 h1        1 MOL      0.068119
    112 H48         1.8990    1.1600    3.1220 hc        1 MOL      0.013286
    113 H49         1.6850   -0.2670    5.0260 hc        1 MOL      0.110311
    114 H50         1.0250   -1.0970    3.6120 hc        1 MOL      0.110311
    115 H51         0.1000    2.4210    5.1600 hc        1 MOL      0.081900
    116 H52         1.8280    1.9640    5.4500 hc        1 MOL      0.081900
    117 H53         1.4570    3.0560    4.0970 hc        1 MOL      0.081900
    118 H54        -1.2960   -0.3520    4.4280 hc        1 MOL      0.036276
    119 H55        -0.3800   -1.7820    5.0490 hc        1 MOL      0.036276
    120 H56        -0.5010   -0.3240    5.9870 hc        1 MOL      0.036276
    121 N11        -1.4030   -0.3870    1.5710 n         1 MOL     -0.396830
    122 C40        -1.7390   -1.4160    0.5700 c3        1 MOL     -0.061193
    123 C41        -3.2840   -1.6140    0.4050 c         1 MOL      0.424642
    124 O16        -3.7790   -2.6120   -0.1460 o         1 MOL     -0.515206
    125 C42        -1.0790   -2.7910    0.8440 c3        1 MOL      0.060050
    126 O17         0.2900   -2.9040    0.7120 oh        1 MOL     -0.398513
    127 H57        -2.1180   -0.1590    2.2450 hn        1 MOL      0.310603
    128 H58        -1.4760   -1.0740   -0.4350 h1        1 MOL      0.177737
    129 H59        -1.5450   -3.5460    0.2190 h1        1 MOL      0.078662
    130 H60        -1.2650   -3.1300    1.8620 h1        1 MOL      0.078662
    131 H61         0.5960   -2.3420   -0.0100 ho        1 MOL      0.273924
    132 N12        -4.1670   -0.7180    0.9050 n         1 MOL     -0.448849
    133 C43        -5.5390   -0.7010    0.5350 c3        1 MOL      0.281921
    134 C44        -5.8070   -0.1950   -0.9200 c         1 MOL      0.510848
    135 O18        -5.0470    0.6280   -1.4610 o         1 MOL     -0.589865
    136 C45        -6.3040   -0.0180    1.6520 c3        1 MOL     -0.344910
    137 H62        -3.7650    0.0860    1.3780 hn        1 MOL      0.223635
    138 H63        -6.0090   -1.6960    0.5640 h1        1 MOL      0.077265
    139 H64        -5.9790    1.0200    1.6280 hc        1 MOL      0.094495
    140 H65        -7.3790   -0.0950    1.4500 hc        1 MOL      0.094495
    141 H66        -6.0570   -0.5360    2.5710 hc        1 MOL      0.094495
    142 N13        -6.8670   -0.6080   -1.6130 n         1 MOL     -0.488001
    143 C46        -7.9620   -1.4800   -1.1810 c3        1 MOL      0.129245
    144 C47        -9.2800   -0.9240   -1.9040 c         1 MOL      0.345543
    145 O19        -9.0990   -0.3280   -3.0310 o         1 MOL     -0.528844
    146 C48        -7.6630   -2.9200   -1.6150 c3        1 MOL     -0.138363
    147 H67        -7.0140   -0.1550   -2.5000 hn        1 MOL      0.315837
    148 H68        -7.9800   -1.5070   -0.0890 h1        1 MOL      0.022179
    149 H69        -8.5340   -3.4690   -1.2790 hc        1 MOL      0.044915
    150 H70        -7.5480   -3.1130   -2.6780 hc        1 MOL      0.044915
    151 H71        -6.8010   -3.3890   -1.1240 hc        1 MOL      0.044915
    152 N14       -10.4850   -1.0420   -1.4020 n         1 MOL     -0.076126
    153 C49       -10.7480   -1.5700   -0.0460 c3        1 MOL     -0.369816
    154 C50       -10.2240   -0.5060    1.0220 c         1 MOL      0.664388
    155 O20        -9.6820   -0.8960    2.0780 o         1 MOL     -0.575556
    156 C51       -12.2150   -2.1380    0.1200 c3        1 MOL     -0.004042
    157 C52       -13.2980   -1.0370    0.0630 c3        1 MOL     -0.103228
    158 C53       -13.6720   -0.5900   -1.3950 c         1 MOL      0.665075
    159 O21       -12.9800    0.2830   -1.9700 o         1 MOL     -0.648746
    160 O22       -14.5440   -1.2060   -2.0330 o         1 MOL     -0.648746
    161 H72       -11.2490   -0.6340   -1.9130 hn        1 MOL      0.198377
    162 H73       -10.1710   -2.4960   -0.0200 h1        1 MOL      0.122052
    163 H74       -12.2850   -2.6680    1.0660 hc        1 MOL      0.059005
    164 H75       -12.4140   -2.8610   -0.6630 hc        1 MOL      0.059005
    165 H76       -13.0050   -0.1840    0.6760 hc        1 MOL     -0.002688
    166 H77       -14.2220   -1.4420    0.4750 hc        1 MOL     -0.002688
    167 N15       -10.2310    0.7770    0.6580 n         1 MOL     -0.279984
    168 C54        -9.7260    1.9070    1.4940 c3        1 MOL     -0.141991
    169 H78        -8.9000    2.3980    0.9780 h1        1 MOL      0.082886
    170 H79       -10.5290    2.6250    1.6590 h1        1 MOL      0.082886
    171 H80        -9.3780    1.5230    2.4530 h1        1 MOL      0.082886
    172 H81       -10.4180    1.0410   -0.2950 hn        1 MOL      0.224427
    173 Ca1         2.5720    0.6930   -0.9820 Ca        1 MOL      1.767032
    174 O23         0.3950    2.1150   -1.8340 oh        1 MOL     -0.907476
    175 O24         0.7520   -1.3350   -1.9920 oh        1 MOL     -0.907476
    176 H82        -0.5180    1.8470   -1.7570 ho        1 MOL      0.434668
    177 H83         1.6180   -1.6590   -2.2190 ho        1 MOL      0.434668
    178 H84         0.3670    3.0580   -1.9310 ho        1 MOL      0.434668
    179 H85         0.2110   -1.5360   -2.7510 ho        1 MOL      0.434668
@<TRIPOS>BOND
     1    1    2 1   
     2    1    4 1   
     3    1    5 1   
     4    1    6 1   
     5    2    3 2   
     6    2    7 1   
     7    7    8 1   
     8    7   15 1   
     9    8    9 1   
    10    8   11 1   
    11    8   16 1   
    12    9   10 2   
    13    9   19 1   
    14   11   12 1   
    15   11   17 1   
    16   11   18 1   
    17   12   13 1   
    18   12   14 1   
    19   19   20 1   
    20   19   28 1   
    21   20   21 1   
    22   20   23 1   
    23   20   29 1   
    24   21   22 2   
    25   21   41 1   
    26   23   24 1   
    27   23   30 1   
    28   23   31 1   
    29   24   25 1   
    30   24   32 1   
    31   24   33 1   
    32   25   26 1   
    33   25   34 1   
    34   25   35 1   
    35   26   27 1   
    36   26   36 1   
    37   26   37 1   
    38   27   38 1   
    39   27   39 1   
    40   27   40 1   
    41   41   42 1   
    42   41   49 1   
    43   42   43 1   
    44   42   45 1   
    45   42   50 1   
    46   43   44 2   
    47   43   53 1   
    48   45   46 1   
    49   45   51 1   
    50   45   52 1   
    51   46   47 1   
    52   46   48 1   
    53   53   54 1   
    54   53   57 1   
    55   54   55 1   
    56   54   58 1   
    57   54   59 1   
    58   55   56 2   
    59   55   60 1   
    60   60   61 1   
    61   60   68 1   
    62   61   62 1   
    63   61   64 1   
    64   61   69 1   
    65   62   63 2   
    66   62   74 1   
    67   64   65 1   
    68   64   70 1   
    69   64   71 1   
    70   65   66 1   
    71   65   67 2   
    72   66   72 1   
    73   66   73 1   
    74   74   75 1   
    75   74   78 1   
    76   75   76 1   
    77   75   79 1   
    78   75   80 1   
    79   76   77 2   
    80   76   81 1   
    81   81   82 1   
    82   81   93 1   
    83   82   83 1   
    84   82   85 1   
    85   82   94 1   
    86   83   84 2   
    87   83  102 1   
    88   85   86 1   
    89   85   95 1   
    90   85   96 1   
    91   86   87 ar  
    92   86   88 ar  
    93   87   89 ar  
    94   87   97 1   
    95   88   90 ar  
    96   88   98 1   
    97   89   91 ar  
    98   89   99 1   
    99   90   91 ar  
   100   90  100 1   
   101   91   92 1   
   102   92  101 1   
   103  102  103 1   
   104  102  110 1   
   105  103  104 1   
   106  103  106 1   
   107  103  111 1   
   108  104  105 2   
   109  104  121 1   
   110  106  107 1   
   111  106  108 1   
   112  106  112 1   
   113  107  109 1   
   114  107  113 1   
   115  107  114 1   
   116  108  115 1   
   117  108  116 1   
   118  108  117 1   
   119  109  118 1   
   120  109  119 1   
   121  109  120 1   
   122  121  122 1   
   123  121  127 1   
   124  122  123 1   
   125  122  125 1   
   126  122  128 1   
   127  123  124 2   
   128  123  132 1   
   129  125  126 1   
   130  125  129 1   
   131  125  130 1   
   132  126  131 1   
   133  132  133 1   
   134  132  137 1   
   135  133  134 1   
   136  133  136 1   
   137  133  138 1   
   138  134  135 2   
   139  134  142 1   
   140  136  139 1   
   141  136  140 1   
   142  136  141 1   
   143  142  143 1   
   144  142  147 1   
   145  143  144 1   
   146  143  146 1   
   147  143  148 1   
   148  144  145 2   
   149  144  152 1   
   150  146  149 1   
   151  146  150 1   
   152  146  151 1   
   153  152  153 1   
   154  152  161 1   
   155  153  154 1   
   156  153  156 1   
   157  153  162 1   
   158  154  155 2   
   159  154  167 1   
   160  156  157 1   
   161  156  163 1   
   162  156  164 1   
   163  157  158 1   
   164  157  165 1   
   165  157  166 1   
   166  158  159 1   
   167  158  160 1   
   168  167  168 1   
   169  167  172 1   
   170  168  169 1   
   171  168  170 1   
   172  168  171 1   
   173  174  176 1   
   174  174  178 1   
   175  175  177 1   
   176  175  179 1   
@<TRIPOS>SUBSTRUCTURE
     1 MOL         1 TEMP              0 ****  ****    0 ROOT
