@<TRIPOS>MOLECULE
MOL
  189   185     1     0     0
SMALL
resp


@<TRIPOS>ATOM
      1 C1          4.2060    4.1040   -3.8060 c3        1 MOL     -0.454829
      2 C2          4.9660    3.2690   -2.6990 c         1 MOL      0.831371
      3 O1          4.3700    2.9250   -1.6790 o         1 MOL     -0.652706
      4 H1          4.7880    4.9910   -4.0550 hc        1 MOL      0.114451
      5 H2          4.0770    3.4920   -4.6990 hc        1 MOL      0.114451
      6 H3          3.2280    4.4050   -3.4280 hc        1 MOL      0.114451
      7 N1          6.1980    2.9630   -2.9770 n         1 MOL     -0.669738
      8 C3          7.0490    2.0080   -2.2310 c3        1 MOL      0.401607
      9 C4          6.2890    0.7370   -1.8710 c         1 MOL      0.122423
     10 O2          5.8700    0.4380   -0.7100 o         1 MOL     -0.395088
     11 C5          8.0030    2.5910   -1.0990 c3        1 MOL     -0.261261
     12 C6          7.4230    3.7000   -0.2940 c         1 MOL      0.796579
     13 O3          6.3310    3.6370    0.2610 o         1 MOL     -0.731781
     14 O4          8.1880    4.6960   -0.2030 o         1 MOL     -0.731781
     15 H4          6.5560    3.2250   -3.8860 hn        1 MOL      0.319506
     16 H5          7.6990    1.6550   -3.0380 h1        1 MOL     -0.021260
     17 H6          8.9070    2.9840   -1.5560 hc        1 MOL      0.045704
     18 H7          8.2190    1.7510   -0.4370 hc        1 MOL      0.045704
     19 N2          6.0780   -0.0980   -2.8780 n         1 MOL     -0.361636
     20 C7          5.2900   -1.4020   -2.7850 c3        1 MOL      0.065026
     21 C8          5.9270   -2.5240   -1.9450 c         1 MOL      0.402123
     22 O5          6.2640   -3.5310   -2.4720 o         1 MOL     -0.537843
     23 C9          3.7100   -1.3660   -2.6000 c3        1 MOL      0.009775
     24 C10         3.0800   -2.7780   -2.9190 c3        1 MOL      0.203126
     25 C11         3.0530   -0.2280   -3.4060 c3        1 MOL     -0.391795
     26 C12         3.1610   -3.1890   -4.3890 c3        1 MOL     -0.054160
     27 H8          6.4130    0.2040   -3.7880 hn        1 MOL      0.276950
     28 H9          5.4320   -1.8670   -3.7510 h1        1 MOL      0.046901
     29 H10         3.5070   -1.1340   -1.5540 hc        1 MOL      0.066143
     30 H11         2.0300   -2.8600   -2.6370 hc        1 MOL     -0.023254
     31 H12         3.6130   -3.5200   -2.3240 hc        1 MOL     -0.023254
     32 H13         1.9590   -0.2740   -3.3490 hc        1 MOL      0.089002
     33 H14         3.5110    0.6120   -2.8860 hc        1 MOL      0.089002
     34 H15         3.3000   -0.2050   -4.4710 hc        1 MOL      0.089002
     35 H16         2.6600   -2.6120   -5.1710 hc        1 MOL     -0.008443
     36 H17         4.1870   -3.2890   -4.7420 hc        1 MOL     -0.008443
     37 H18         2.8060   -4.2250   -4.4100 hc        1 MOL     -0.008443
     38 N3          6.1530   -2.3230   -0.6220 n         1 MOL     -0.053123
     39 C13         6.6780   -3.3410    0.2060 c3        1 MOL     -0.060949
     40 C14         5.7860   -4.6760    0.1950 c         1 MOL      0.580202
     41 O6          6.2710   -5.7690    0.0520 o         1 MOL     -0.554600
     42 C15         6.8890   -2.7280    1.6210 c3        1 MOL     -0.405080
     43 C16         7.5950   -3.7710    2.4680 c         1 MOL      0.829345
     44 O7          8.8210   -3.8300    2.4150 o         1 MOL     -0.740650
     45 O8          6.9730   -4.5130    3.2050 o         1 MOL     -0.740650
     46 H19         5.8590   -1.5030   -0.1180 hn        1 MOL      0.158057
     47 H20         7.7190   -3.4940   -0.0700 h1        1 MOL      0.069358
     48 H21         5.9890   -2.3280    2.0790 hc        1 MOL      0.104612
     49 H22         7.5130   -1.8410    1.5050 hc        1 MOL      0.104612
     50 N4          4.4510   -4.6830    0.3920 n         1 MOL     -0.443958
     51 C17         3.5990   -3.6130    0.6670 c3        1 MOL      0.100000
     52 C18         2.3560   -4.0240    1.4870 c         1 MOL      0.645233
     53 O9          1.7240   -5.0880    1.4210 o         1 MOL     -0.590011
     54 H23         4.0410   -5.6020    0.4920 hn        1 MOL      0.273676
     55 H24         3.2590   -3.1620   -0.2600 h1        1 MOL     -0.014411
     56 H25         4.1550   -2.8070    1.1470 h1        1 MOL     -0.014411
     57 N5          1.9200   -3.1830    2.4720 n         1 MOL     -0.572330
     58 C19         2.3900   -1.8730    2.9750 c3        1 MOL      0.243740
     59 C20         2.4970   -0.7840    1.8820 c         1 MOL      0.405373
     60 O10         3.5890   -0.2740    1.7010 o         1 MOL     -0.620923
     61 C21         3.5450   -1.9340    3.9810 c3        1 MOL     -0.161406
     62 C22         3.8670   -0.5780    4.5460 c         1 MOL      0.711219
     63 O11         2.9290    0.1600    5.0060 o         1 MOL     -0.701434
     64 O12         5.0510   -0.1850    4.4970 o         1 MOL     -0.701434
     65 H26         0.9650   -3.3730    2.7090 hn        1 MOL      0.283439
     66 H27         1.5530   -1.5520    3.6020 h1        1 MOL     -0.003218
     67 H28         4.4530   -2.3320    3.5300 hc        1 MOL      0.043306
     68 H29         3.1640   -2.5340    4.8190 hc        1 MOL      0.043306
     69 N6          1.5260   -0.4900    1.0740 n         1 MOL     -0.238501
     70 C23         0.1610   -0.9730    1.0940 c3        1 MOL      0.005579
     71 C24        -0.1400   -2.2170    0.2550 c         1 MOL      0.665312
     72 O13         0.5280   -2.4510   -0.7480 o         1 MOL     -0.565951
     73 H30         1.7330    0.0870    0.2720 hn        1 MOL      0.145931
     74 H31        -0.6550   -0.3110    0.8020 h1        1 MOL      0.050866
     75 H32        -0.1710   -1.2000    2.1030 h1        1 MOL      0.050866
     76 N7         -1.1010   -2.9830    0.6290 n         1 MOL     -0.515838
     77 C25        -1.5770   -4.2300   -0.0420 c3        1 MOL     -0.038406
     78 C26        -2.4100   -4.0470   -1.3620 c         1 MOL      0.528768
     79 O14        -2.5190   -5.0160   -2.0870 o         1 MOL     -0.529314
     80 C27        -2.2500   -5.1540    0.9810 c3        1 MOL      0.040592
     81 C28        -3.3310   -4.4890    1.8290 c3        1 MOL     -0.076037
     82 C29        -4.6610   -4.1590    1.0950 c         1 MOL      0.499127
     83 N8         -5.4970   -5.1160    0.7950 n         1 MOL     -0.578855
     84 O15        -4.9000   -3.0150    0.7690 o         1 MOL     -0.546459
     85 H33        -1.6320   -2.6380    1.4090 hn        1 MOL      0.248929
     86 H34        -0.6720   -4.7390   -0.3940 h1        1 MOL      0.125344
     87 H35        -1.5680   -5.6400    1.6670 hc        1 MOL      0.013974
     88 H36        -2.7030   -5.9260    0.3570 hc        1 MOL      0.013974
     89 H37        -2.9740   -3.6020    2.3580 hc        1 MOL      0.038382
     90 H38        -3.6400   -5.1540    2.6350 hc        1 MOL      0.038382
     91 H39        -5.2860   -6.0280    1.1900 hn        1 MOL      0.303038
     92 H40        -6.3720   -4.8980    0.3340 hn        1 MOL      0.303038
     93 N9         -2.9380   -2.8410   -1.6080 n         1 MOL     -0.307180
     94 C30        -3.4130   -2.4420   -2.9380 c3        1 MOL     -0.080398
     95 C31        -4.8700   -1.9560   -3.0630 c         1 MOL      0.429666
     96 O16        -5.4020   -1.8690   -4.1710 o         1 MOL     -0.535912
     97 C32        -2.4190   -1.4390   -3.6250 c3        1 MOL      0.204359
     98 C33        -1.1260   -2.2160   -3.9980 c3        1 MOL     -0.183495
     99 C34        -2.1170   -0.1890   -2.8960 c3        1 MOL     -0.183495
    100 H41        -2.7930   -2.0910   -0.9490 hn        1 MOL      0.264400
    101 H42        -3.3660   -3.2650   -3.6550 h1        1 MOL      0.100392
    102 H43        -2.8700   -1.2420   -4.5950 hc        1 MOL     -0.007479
    103 H44        -0.6300   -2.5600   -3.0960 hc        1 MOL      0.039856
    104 H45        -1.3250   -3.1440   -4.5240 hc        1 MOL      0.039856
    105 H46        -0.6420   -1.5370   -4.6990 hc        1 MOL      0.039856
    106 H47        -1.5700   -0.3810   -1.9740 hc        1 MOL      0.039856
    107 H48        -1.5200    0.4910   -3.4930 hc        1 MOL      0.039856
    108 H49        -3.0310    0.3620   -2.6690 hc        1 MOL      0.039856
    109 N10        -5.4920   -1.6960   -1.8720 n         1 MOL     -0.199106
    110 C35        -6.8640   -1.1710   -1.7200 c3        1 MOL      0.042960
    111 C36        -6.9200    0.2780   -1.2310 c         1 MOL      0.473634
    112 O17        -7.8130    1.0300   -1.5560 o         1 MOL     -0.531172
    113 C37        -7.6220   -2.2070   -0.7970 c3        1 MOL     -0.350578
    114 C38        -7.9210   -3.5590   -1.4360 c         1 MOL      0.593501
    115 N11        -8.2150   -3.6790   -2.6600 n         1 MOL     -0.656539
    116 O18        -7.8570   -4.5770   -0.7470 o         1 MOL     -0.568108
    117 H50        -5.0130   -1.7160   -0.9890 hn        1 MOL      0.159886
    118 H51        -7.3500   -1.1320   -2.6950 h1        1 MOL      0.047834
    119 H52        -8.5450   -1.6920   -0.5030 hc        1 MOL      0.163064
    120 H53        -6.9930   -2.2470    0.0920 hc        1 MOL      0.163064
    121 H54        -8.3770   -2.9650   -3.3450 hn        1 MOL      0.341260
    122 H55        -8.3320   -4.6230   -3.0120 hn        1 MOL      0.341260
    123 N12        -5.9540    0.6080   -0.3450 n         1 MOL     -0.354075
    124 C39        -5.9910    1.9030    0.4480 c3        1 MOL      0.313875
    125 C40        -4.6770    2.7130    0.4320 c         1 MOL      0.267457
    126 O19        -3.6200    2.1550    0.0910 o         1 MOL     -0.471639
    127 C41        -6.3460    1.6220    1.9800 c3        1 MOL     -0.183448
    128 C42        -7.6120    0.8120    2.2040 ca        1 MOL     -0.080594
    129 C43        -8.8990    1.3370    1.9820 ca        1 MOL     -0.035894
    130 C44        -7.4520   -0.5200    2.7090 ca        1 MOL     -0.035894
    131 C45       -10.0410    0.5880    2.0770 ca        1 MOL     -0.326435
    132 C46        -8.6480   -1.2600    2.8620 ca        1 MOL     -0.326435
    133 C47        -9.9300   -0.7430    2.6050 ca        1 MOL      0.342448
    134 O20       -11.0110   -1.5090    2.7450 oh        1 MOL     -0.486874
    135 H56        -5.1310    0.0430   -0.2140 hn        1 MOL      0.216321
    136 H57        -6.8110    2.4800    0.0160 h1        1 MOL     -0.006716
    137 H58        -6.5350    2.5330    2.5370 hc        1 MOL      0.097481
    138 H59        -5.4670    1.1660    2.4310 hc        1 MOL      0.097481
    139 H60        -9.0150    2.3730    1.7340 ha        1 MOL      0.100033
    140 H61        -6.5000   -1.0030    2.8070 ha        1 MOL      0.100033
    141 H62       -11.0310    1.0130    2.0090 ha        1 MOL      0.142350
    142 H63        -8.6850   -2.2340    3.3280 ha        1 MOL      0.142350
    143 H64       -11.8000   -1.0080    2.5480 ho        1 MOL      0.364257
    144 N13        -4.7740    3.9700    0.9020 n         1 MOL     -0.544231
    145 C48        -3.7210    4.9140    1.2680 c3        1 MOL      0.150935
    146 C49        -2.6350    5.3180    0.1950 c         1 MOL      0.128526
    147 O21        -2.1170    6.4370    0.1740 o         1 MOL     -0.466417
    148 C50        -3.0560    4.3360    2.5290 c3        1 MOL      0.345138
    149 C51        -2.2790    5.4570    3.2810 c3        1 MOL     -0.474237
    150 C52        -1.4620    4.8860    4.4900 c         1 MOL      0.823451
    151 O22        -0.2990    5.3210    4.7160 o         1 MOL     -0.757914
    152 O23        -1.9280    3.9070    5.1370 o         1 MOL     -0.757914
    153 H65        -5.6980    4.2410    1.2100 hn        1 MOL      0.313415
    154 H66        -4.3290    5.7800    1.5280 h1        1 MOL      0.041153
    155 H67        -2.4220    3.4970    2.2470 hc        1 MOL     -0.052118
    156 H68        -3.8500    3.9520    3.1680 hc        1 MOL     -0.052118
    157 H69        -2.9670    6.1590    3.7440 hc        1 MOL      0.079100
    158 H70        -1.5170    5.9240    2.6530 hc        1 MOL      0.079100
    159 N14        -2.2850    4.4000   -0.7460 n         1 MOL     -0.017963
    160 C53        -1.2480    4.4990   -1.7000 c3        1 MOL     -0.112339
    161 C54        -1.7010    5.2060   -2.9960 c         1 MOL      0.478669
    162 O24        -0.8860    5.7390   -3.7510 o         1 MOL     -0.555696
    163 C55        -0.7020    3.0970   -2.0340 c3        1 MOL      0.230529
    164 C56        -0.2950    2.2620   -0.7860 c3        1 MOL      0.104824
    165 C57         0.9250    2.9130   -0.0100 c         1 MOL      0.586124
    166 O25         0.8010    4.0330    0.5010 o         1 MOL     -0.610066
    167 O26         1.9540    2.2320    0.2760 o         1 MOL     -0.610066
    168 H71        -2.8330    3.5590   -0.7600 hn        1 MOL      0.189629
    169 H72        -0.4600    5.1280   -1.2910 h1        1 MOL      0.140759
    170 H73         0.1280    3.2330   -2.7320 hc        1 MOL     -0.090444
    171 H74        -1.4260    2.4680   -2.5480 hc        1 MOL     -0.090444
    172 H75         0.0680    1.2790   -1.0870 hc        1 MOL     -0.040449
    173 H76        -1.1050    2.1520   -0.0730 hc        1 MOL     -0.040449
    174 N15        -2.9600    5.1590   -3.3380 n         1 MOL     -0.222006
    175 C58        -3.5370    5.8070   -4.5040 c3        1 MOL     -0.286726
    176 H77        -2.9840    6.7200   -4.7230 h1        1 MOL      0.108845
    177 H78        -3.4800    5.1330   -5.3600 h1        1 MOL      0.108845
    178 H79        -4.5800    6.0540   -4.3050 h1        1 MOL      0.108845
    179 H80        -3.6320    4.6500   -2.7850 hn        1 MOL      0.208774
    180 Ca1         4.4400    2.1360    0.8400 Ca        1 MOL      1.758582
    181 O27         6.5340    1.1180    2.1660 oh        1 MOL     -0.933902
    182 H81         6.1480    0.6360    2.8960 ho        1 MOL      0.442301
    183 H82         7.4690    0.9460    2.2350 ho        1 MOL      0.442301
    184 O28         3.4260    4.7250    0.8350 oh        1 MOL     -0.933902
    185 H83         2.5210    4.5330    0.6120 ho        1 MOL      0.442301
    186 H84         3.3680    5.2750    1.6170 ho        1 MOL      0.442301
    187 O29         3.5740    2.4690    3.4660 oh        1 MOL     -0.933902
    188 H85         3.7810    2.0030    4.2730 ho        1 MOL      0.442301
    189 H86         2.7270    2.8990    3.6380 ho        1 MOL      0.442301
@<TRIPOS>BOND
     1    1    2 1   
     2    1    4 1   
     3    1    5 1   
     4    1    6 1   
     5    2    3 2   
     6    2    7 1   
     7    7    8 1   
     8    7   15 1   
     9    8    9 1   
    10    8   11 1   
    11    8   16 1   
    12    9   10 2   
    13    9   19 1   
    14   11   12 1   
    15   11   17 1   
    16   11   18 1   
    17   12   13 1   
    18   12   14 1   
    19   19   20 1   
    20   19   27 1   
    21   20   21 1   
    22   20   23 1   
    23   20   28 1   
    24   21   22 2   
    25   21   38 1   
    26   23   24 1   
    27   23   25 1   
    28   23   29 1   
    29   24   26 1   
    30   24   30 1   
    31   24   31 1   
    32   25   32 1   
    33   25   33 1   
    34   25   34 1   
    35   26   35 1   
    36   26   36 1   
    37   26   37 1   
    38   38   39 1   
    39   38   46 1   
    40   39   40 1   
    41   39   42 1   
    42   39   47 1   
    43   40   41 2   
    44   40   50 1   
    45   42   43 1   
    46   42   48 1   
    47   42   49 1   
    48   43   44 1   
    49   43   45 1   
    50   50   51 1   
    51   50   54 1   
    52   51   52 1   
    53   51   55 1   
    54   51   56 1   
    55   52   53 2   
    56   52   57 1   
    57   57   58 1   
    58   57   65 1   
    59   58   59 1   
    60   58   61 1   
    61   58   66 1   
    62   59   60 2   
    63   59   69 1   
    64   61   62 1   
    65   61   67 1   
    66   61   68 1   
    67   62   63 1   
    68   62   64 1   
    69   69   70 1   
    70   69   73 1   
    71   70   71 1   
    72   70   74 1   
    73   70   75 1   
    74   71   72 2   
    75   71   76 1   
    76   76   77 1   
    77   76   85 1   
    78   77   78 1   
    79   77   80 1   
    80   77   86 1   
    81   78   79 2   
    82   78   93 1   
    83   80   81 1   
    84   80   87 1   
    85   80   88 1   
    86   81   82 1   
    87   81   89 1   
    88   81   90 1   
    89   82   83 1   
    90   82   84 2   
    91   83   91 1   
    92   83   92 1   
    93   93   94 1   
    94   93  100 1   
    95   94   95 1   
    96   94   97 1   
    97   94  101 1   
    98   95   96 2   
    99   95  109 1   
   100   97   98 1   
   101   97   99 1   
   102   97  102 1   
   103   98  103 1   
   104   98  104 1   
   105   98  105 1   
   106   99  106 1   
   107   99  107 1   
   108   99  108 1   
   109  109  110 1   
   110  109  117 1   
   111  110  111 1   
   112  110  113 1   
   113  110  118 1   
   114  111  112 2   
   115  111  123 1   
   116  113  114 1   
   117  113  119 1   
   118  113  120 1   
   119  114  115 1   
   120  114  116 2   
   121  115  121 1   
   122  115  122 1   
   123  123  124 1   
   124  123  135 1   
   125  124  125 1   
   126  124  127 1   
   127  124  136 1   
   128  125  126 2   
   129  125  144 1   
   130  127  128 1   
   131  127  137 1   
   132  127  138 1   
   133  128  129 ar  
   134  128  130 ar  
   135  129  131 ar  
   136  129  139 1   
   137  130  132 ar  
   138  130  140 1   
   139  131  133 ar  
   140  131  141 1   
   141  132  133 ar  
   142  132  142 1   
   143  133  134 1   
   144  134  143 1   
   145  144  145 1   
   146  144  153 1   
   147  145  146 1   
   148  145  148 1   
   149  145  154 1   
   150  146  147 2   
   151  146  159 1   
   152  148  149 1   
   153  148  155 1   
   154  148  156 1   
   155  149  150 1   
   156  149  157 1   
   157  149  158 1   
   158  150  151 1   
   159  150  152 1   
   160  159  160 1   
   161  159  168 1   
   162  160  161 1   
   163  160  163 1   
   164  160  169 1   
   165  161  162 2   
   166  161  174 1   
   167  163  164 1   
   168  163  170 1   
   169  163  171 1   
   170  164  165 1   
   171  164  172 1   
   172  164  173 1   
   173  165  166 1   
   174  165  167 1   
   175  174  175 1   
   176  174  179 1   
   177  175  176 1   
   178  175  177 1   
   179  175  178 1   
   180  181  182 1   
   181  181  183 1   
   182  184  185 1   
   183  184  186 1   
   184  187  188 1   
   185  187  189 1   
@<TRIPOS>SUBSTRUCTURE
     1 MOL         1 TEMP              0 ****  ****    0 ROOT
