@<TRIPOS>MOLECULE
MOL
  198   191     1     0     0
SMALL
resp


@<TRIPOS>ATOM
      1 C1          3.3730    5.7210    1.0370 c3        1 MOL     -0.368323
      2 C2          4.8600    5.6870    0.7120 c         1 MOL      0.734791
      3 O1          5.6680    6.3100    1.3560 o         1 MOL     -0.561273
      4 H1          3.1220    6.6820    1.4860 hc        1 MOL      0.091907
      5 H2          2.7970    5.5860    0.1220 hc        1 MOL      0.091907
      6 H3          3.1360    4.9200    1.7380 hc        1 MOL      0.091907
      7 N1          5.2510    4.9920   -0.3750 n         1 MOL     -0.702916
      8 C3          6.6300    4.7550   -0.8500 c3        1 MOL      0.375996
      9 C4          7.5120    3.9120    0.1050 c         1 MOL      0.555350
     10 O2          7.0110    3.4810    1.1530 o         1 MOL     -0.541019
     11 C5          7.3540    6.0890   -1.1910 c3        1 MOL     -0.439086
     12 C6          8.4800    5.8500   -2.1010 c         1 MOL      0.776333
     13 O3          8.4560    5.0210   -3.0500 o         1 MOL     -0.741847
     14 O4          9.5630    6.5040   -1.8500 o         1 MOL     -0.741847
     15 H4          4.5200    4.5480   -0.9180 hn        1 MOL      0.317862
     16 H5          6.5930    4.2090   -1.7920 h1        1 MOL      0.003976
     17 H6          7.6300    6.5960   -0.2690 hc        1 MOL      0.108560
     18 H7          6.5920    6.6820   -1.7060 hc        1 MOL      0.108560
     19 N2          8.7500    3.5370   -0.2690 n         1 MOL     -0.489132
     20 C7          9.6750    2.6160    0.5500 c3        1 MOL      0.110323
     21 C8          9.1250    1.2640    0.7460 c         1 MOL      0.516115
     22 O5          9.5550    0.5790    1.6270 o         1 MOL     -0.544709
     23 C9         10.2010    3.3990    1.7570 c3        1 MOL     -0.363843
     24 C10        11.1510    4.5140    1.3020 c3        1 MOL      0.094219
     25 C11        12.2540    4.8880    2.3130 c3        1 MOL      0.033004
     26 C12        13.1540    5.9630    1.7940 c3        1 MOL     -0.240550
     27 N3         13.8700    5.4460    0.5710 n4        1 MOL     -0.349630
     28 H8          9.0820    3.8630   -1.1690 hn        1 MOL      0.264076
     29 H9         10.5010    2.3130   -0.0880 h1        1 MOL      0.073810
     30 H10        10.8450    2.7800    2.3790 hc        1 MOL      0.157540
     31 H11         9.4080    3.8300    2.3580 hc        1 MOL      0.157540
     32 H12        10.4820    5.3570    1.1280 hc        1 MOL      0.027589
     33 H13        11.6580    4.2140    0.3820 hc        1 MOL      0.027589
     34 H14        12.7860    3.9570    2.5460 hc        1 MOL      0.016791
     35 H15        11.7970    5.1680    3.2620 hc        1 MOL      0.016791
     36 H16        13.9000    6.2880    2.5260 hx        1 MOL      0.179277
     37 H17        12.5690    6.8480    1.5700 hx        1 MOL      0.179277
     38 H18        14.6690    6.0410    0.3920 hn        1 MOL      0.328038
     39 H19        14.3350    4.5700    0.7520 hn        1 MOL      0.328038
     40 H20        13.2750    5.2930   -0.2340 hn        1 MOL      0.328038
     41 N4          8.0960    0.7970   -0.0270 n         1 MOL     -0.508919
     42 C13         7.3110   -0.3970    0.1660 c3        1 MOL      0.220346
     43 C14         6.5160   -0.7830   -1.1060 c         1 MOL      0.432621
     44 O6          5.6970    0.0170   -1.5860 o         1 MOL     -0.497764
     45 C15         6.3050   -0.0870    1.3510 c3        1 MOL     -0.295030
     46 C16         5.3660   -1.2360    1.6640 c         1 MOL      0.747978
     47 O7          5.3870   -2.4020    1.1280 o         1 MOL     -0.774668
     48 O8          4.4590   -1.0560    2.5630 o         1 MOL     -0.774668
     49 H21         7.7080    1.4940   -0.6430 hn        1 MOL      0.232738
     50 H22         7.9830   -1.2050    0.4830 h1        1 MOL      0.068171
     51 H23         5.6500    0.7070    1.0090 hc        1 MOL      0.123476
     52 H24         6.7040    0.2320    2.3150 hc        1 MOL      0.123476
     53 N5          6.9370   -1.8800   -1.7900 n         1 MOL     -0.389287
     54 C17         7.8330   -2.9910   -1.3980 c3        1 MOL      0.026206
     55 C18         7.0940   -4.3610   -1.3520 c         1 MOL      0.511710
     56 O9          7.5780   -5.3240   -1.8740 o         1 MOL     -0.550333
     57 H25         6.2640   -2.0820   -2.5160 hn        1 MOL      0.236651
     58 H26         8.3790   -2.7770   -0.4720 h1        1 MOL      0.062011
     59 H27         8.6310   -3.0200   -2.1420 h1        1 MOL      0.062011
     60 N6          5.8710   -4.4570   -0.8150 n         1 MOL     -0.175167
     61 C19         4.8670   -5.4850   -0.9420 c3        1 MOL      0.018128
     62 C20         3.4370   -5.0240   -0.7210 c         1 MOL      0.087880
     63 O10         3.1670   -4.0240   -0.0220 o         1 MOL     -0.465216
     64 C21         5.1550   -6.6390    0.0940 c3        1 MOL     -0.025525
     65 C22         5.3800   -6.1750    1.5020 c         1 MOL      0.445452
     66 O11         6.6120   -6.2080    1.9270 o         1 MOL     -0.608380
     67 O12         4.4530   -5.7200    2.2840 o         1 MOL     -0.608380
     68 H28         5.4690   -3.6420   -0.3720 hn        1 MOL      0.244939
     69 H29         4.8680   -6.0750   -1.8650 h1        1 MOL      0.054763
     70 H30         6.0960   -7.0180   -0.3120 hc        1 MOL      0.031745
     71 H31         4.3340   -7.3450   -0.0380 hc        1 MOL      0.031745
     72 N7          2.3920   -5.7120   -1.2140 n         1 MOL     -0.177218
     73 C23         0.9580   -5.4190   -1.0120 c3        1 MOL     -0.293492
     74 C24         0.5140   -4.1350   -1.7570 c         1 MOL      0.637441
     75 O13        -0.6970   -3.9790   -1.8790 o         1 MOL     -0.582876
     76 H32         2.6210   -6.4790   -1.8220 hn        1 MOL      0.270523
     77 H33         0.7890   -5.2350    0.0500 h1        1 MOL      0.138908
     78 H34         0.3660   -6.2980   -1.2490 h1        1 MOL      0.138908
     79 N8          1.4140   -3.2520   -2.2090 n         1 MOL     -0.488477
     80 C25         1.0770   -1.9130   -2.9290 c3        1 MOL     -0.108237
     81 C26         0.8440   -0.8650   -1.8340 c         1 MOL      0.625450
     82 O14         1.3020   -0.8310   -0.6610 o         1 MOL     -0.534408
     83 C27         2.1150   -1.5210   -3.9740 c3        1 MOL      0.232131
     84 C28         3.5870   -1.3680   -3.5960 c3        1 MOL     -0.059770
     85 O15         2.1840   -2.4980   -5.0710 oh        1 MOL     -0.595683
     86 H35         2.3380   -3.4430   -1.8540 hn        1 MOL      0.352496
     87 H36         0.1170   -2.0870   -3.4120 h1        1 MOL      0.140578
     88 H37         1.8920   -0.5000   -4.2840 h1        1 MOL      0.001885
     89 H38         1.6180   -2.2460   -5.8060 ho        1 MOL      0.383312
     90 H39         3.9300   -2.2350   -3.0250 hc        1 MOL      0.042245
     91 H40         4.1630   -1.3480   -4.5100 hc        1 MOL      0.042245
     92 H41         3.7590   -0.4530   -3.0300 hc        1 MOL      0.042245
     93 N9         -0.0600    0.0720   -2.1710 n         1 MOL     -0.461915
     94 C29        -0.5850    1.2310   -1.3840 c3        1 MOL      0.022017
     95 C30        -1.8930    0.8320   -0.7260 c         1 MOL      0.368035
     96 O16        -2.2270    1.4410    0.2660 o         1 MOL     -0.514301
     97 C31        -0.6740    2.4670   -2.1780 c3        1 MOL      0.091238
     98 C32        -1.9190    2.5060   -3.1450 c3        1 MOL      0.282735
     99 C33         0.6380    2.7840   -3.0330 c3        1 MOL     -0.348246
    100 C34        -2.1240    3.9200   -3.6830 c3        1 MOL     -0.455532
    101 H42        -0.4500    0.0020   -3.0940 hn        1 MOL      0.247216
    102 H43         0.0590    1.4370   -0.5240 h1        1 MOL      0.111930
    103 H44        -0.8540    3.2390   -1.4290 hc        1 MOL      0.018176
    104 H45        -2.8370    2.1110   -2.7010 hc        1 MOL     -0.048140
    105 H46        -1.6760    1.7390   -3.8790 hc        1 MOL     -0.048140
    106 H47         0.7830    3.8450   -3.2440 hc        1 MOL      0.093823
    107 H48         1.5450    2.5060   -2.4880 hc        1 MOL      0.093823
    108 H49         0.6480    2.2800   -4.0060 hc        1 MOL      0.093823
    109 H50        -1.2290    4.2380   -4.2130 hc        1 MOL      0.112261
    110 H51        -3.0160    3.9380   -4.3070 hc        1 MOL      0.112261
    111 H52        -2.3970    4.5710   -2.8500 hc        1 MOL      0.112261
    112 N10        -2.6000   -0.2110   -1.1720 n         1 MOL     -0.173070
    113 C35        -3.9440   -0.5140   -0.6660 c3        1 MOL      0.082836
    114 C36        -4.9450   -0.4030   -1.7880 c         1 MOL      0.489194
    115 O17        -4.5900    0.0080   -2.9910 o         1 MOL     -0.538788
    116 C37        -3.9040   -1.9500   -0.0520 c3        1 MOL      0.221483
    117 C38        -2.6620   -2.3220    0.7720 c3        1 MOL     -0.250593
    118 O18        -5.0430   -2.1320    0.7890 oh        1 MOL     -0.634997
    119 H53        -2.3100   -0.7700   -1.9640 hn        1 MOL      0.161670
    120 H54        -4.2190    0.2000    0.1070 h1        1 MOL      0.091857
    121 H55        -4.0010   -2.7010   -0.8330 h1        1 MOL      0.047241
    122 H56        -4.7870   -2.4780    1.6500 ho        1 MOL      0.409746
    123 H57        -2.6740   -1.6520    1.6240 hc        1 MOL      0.067422
    124 H58        -2.5030   -3.3220    1.1790 hc        1 MOL      0.067422
    125 H59        -1.6780   -2.0970    0.3540 hc        1 MOL      0.067422
    126 N11        -6.3090   -0.5860   -1.5070 n         1 MOL     -0.522915
    127 C39        -7.4150   -0.1580   -2.4300 c3        1 MOL      0.004098
    128 C40        -8.6870    0.4080   -1.7860 c         1 MOL      0.524542
    129 O19        -9.2880    1.3160   -2.3990 o         1 MOL     -0.544794
    130 C41        -7.8560   -1.3080   -3.3890 c3        1 MOL      0.458769
    131 C42        -8.4820   -0.7780   -4.6910 c3        1 MOL     -0.553389
    132 O20        -8.7510   -2.1550   -2.7240 oh        1 MOL     -0.631459
    133 H60        -6.5940   -0.9480   -0.6160 hn        1 MOL      0.277160
    134 H61        -7.0000    0.6690   -3.0090 h1        1 MOL      0.113611
    135 H62        -6.9310   -1.8560   -3.5920 h1        1 MOL     -0.014323
    136 H63        -8.2200   -2.7820   -2.2270 ho        1 MOL      0.384465
    137 H64        -7.9260    0.0520   -5.1270 hc        1 MOL      0.150415
    138 H65        -8.7490   -1.6810   -5.2390 hc        1 MOL      0.150415
    139 H66        -9.4620   -0.3490   -4.4470 hc        1 MOL      0.150415
    140 N12        -9.1060   -0.1370   -0.5930 n         1 MOL     -0.465740
    141 C43       -10.4000    0.1740   -0.0010 c3        1 MOL      0.117168
    142 C44       -10.3160    0.2780    1.5090 c         1 MOL      0.394772
    143 O21        -9.5820   -0.5080    2.0640 o         1 MOL     -0.520206
    144 C45       -11.4350   -0.8540   -0.5970 c3        1 MOL     -0.111763
    145 C46       -12.8610   -0.4680   -0.3080 c3        1 MOL      0.086549
    146 C47       -13.4190    0.5170   -1.3220 c3        1 MOL     -0.234295
    147 C48       -14.8200    0.9990   -0.8760 c3        1 MOL      0.217189
    148 N13       -15.4140    1.7350   -1.9580 n4        1 MOL     -0.396424
    149 H67        -8.5860   -0.7770   -0.0200 hn        1 MOL      0.280177
    150 H68       -10.5770    1.1860   -0.3590 h1        1 MOL      0.084444
    151 H69       -11.2730   -1.8350   -0.1430 hc        1 MOL      0.063181
    152 H70       -11.3190   -0.9900   -1.6690 hc        1 MOL      0.063181
    153 H71       -12.9430   -0.1450    0.7290 hc        1 MOL     -0.017594
    154 H72       -13.4220   -1.4030   -0.3810 hc        1 MOL     -0.017594
    155 H73       -13.4950    0.1250   -2.3350 hc        1 MOL      0.078579
    156 H74       -12.7960    1.4090   -1.2740 hc        1 MOL      0.078579
    157 H75       -14.7160    1.6070    0.0250 hx        1 MOL      0.029954
    158 H76       -15.5070    0.2010   -0.5780 hx        1 MOL      0.029954
    159 H77       -16.2220    2.2440   -1.6250 hn        1 MOL      0.328923
    160 H78       -14.7920    2.3550   -2.4500 hn        1 MOL      0.328923
    161 H79       -15.6590    1.0770   -2.6930 hn        1 MOL      0.328923
    162 N14       -11.0360    1.1920    2.1260 n         1 MOL     -0.089731
    163 C49       -11.0560    1.4270    3.6050 c3        1 MOL      0.042110
    164 C50        -9.6760    1.8070    4.2360 c         1 MOL      0.352193
    165 O22        -9.3900    1.2150    5.2330 o         1 MOL     -0.501106
    166 C51       -12.2350    2.3670    3.9810 c3        1 MOL      0.074093
    167 C52       -13.5720    2.1770    3.1510 c3        1 MOL     -0.235097
    168 C53       -13.6860    3.1250    1.9170 c         1 MOL      0.757307
    169 O23       -12.8230    3.0280    1.0110 o         1 MOL     -0.691884
    170 O24       -14.5510    4.0350    1.8220 o         1 MOL     -0.691884
    171 H80       -11.5690    1.8620    1.5910 hn        1 MOL      0.100257
    172 H81       -11.4420    0.5560    4.1200 h1        1 MOL      0.040831
    173 H82       -11.9620    3.4030    3.8230 hc        1 MOL      0.023887
    174 H83       -12.3300    2.2950    5.0620 hc        1 MOL      0.023887
    175 H84       -14.4100    2.4680    3.7710 hc        1 MOL      0.021464
    176 H85       -13.6150    1.1700    2.7230 hc        1 MOL      0.021464
    177 N15        -8.7970    2.7210    3.7400 n         1 MOL     -0.329535
    178 C54        -8.8890    3.4670    2.4410 c3        1 MOL     -0.161531
    179 H86        -9.2010    2.7840    1.6520 h1        1 MOL      0.090941
    180 H87        -9.6200    4.2710    2.5340 h1        1 MOL      0.090941
    181 H88        -7.9150    3.8870    2.1930 h1        1 MOL      0.090941
    182 H89        -7.9890    2.8470    4.3390 hn        1 MOL      0.281172
    183 Ca1         3.3330   -3.5060    2.7450 Ca        1 MOL      1.720146
    184 O25         1.3030   -5.2020    2.3950 oh        1 MOL     -0.805454
    185 H90         0.3500   -5.2030    2.3820 ho        1 MOL      0.400240
    186 H91         1.5500   -6.1110    2.2110 ho        1 MOL      0.400240
    187 O26         5.6150   -3.2600    3.9990 oh        1 MOL     -0.805454
    188 H92         6.2330   -3.9020    4.3640 ho        1 MOL      0.400240
    189 H93         6.0550   -2.4220    4.1150 ho        1 MOL      0.400240
    190 O27         2.5900   -2.1130    4.8500 oh        1 MOL     -0.805454
    191 H94         2.6630   -1.2150    4.5520 ho        1 MOL      0.400240
    192 H95         2.4030   -2.0440    5.7900 ho        1 MOL      0.400240
    193 O28         3.0450   -4.9740    4.9500 oh        1 MOL     -0.805454
    194 H96         2.4690   -5.1150    5.7020 ho        1 MOL      0.400240
    195 H97         3.4490   -5.8290    4.7980 ho        1 MOL      0.400240
    196 O29         1.2830   -2.0780    1.8170 oh        1 MOL     -0.805454
    197 H98         1.2770   -1.6550    0.9500 ho        1 MOL      0.400240
    198 H99         0.7840   -1.4980    2.3750 ho        1 MOL      0.400240
@<TRIPOS>BOND
     1    1    2 1   
     2    1    4 1   
     3    1    5 1   
     4    1    6 1   
     5    2    3 2   
     6    2    7 1   
     7    7    8 1   
     8    7   15 1   
     9    8    9 1   
    10    8   11 1   
    11    8   16 1   
    12    9   10 2   
    13    9   19 1   
    14   11   12 1   
    15   11   17 1   
    16   11   18 1   
    17   12   13 1   
    18   12   14 1   
    19   19   20 1   
    20   19   28 1   
    21   20   21 1   
    22   20   23 1   
    23   20   29 1   
    24   21   22 2   
    25   21   41 1   
    26   23   24 1   
    27   23   30 1   
    28   23   31 1   
    29   24   25 1   
    30   24   32 1   
    31   24   33 1   
    32   25   26 1   
    33   25   34 1   
    34   25   35 1   
    35   26   27 1   
    36   26   36 1   
    37   26   37 1   
    38   27   38 1   
    39   27   39 1   
    40   27   40 1   
    41   41   42 1   
    42   41   49 1   
    43   42   43 1   
    44   42   45 1   
    45   42   50 1   
    46   43   44 2   
    47   43   53 1   
    48   45   46 1   
    49   45   51 1   
    50   45   52 1   
    51   46   47 1   
    52   46   48 1   
    53   53   54 1   
    54   53   57 1   
    55   54   55 1   
    56   54   58 1   
    57   54   59 1   
    58   55   56 2   
    59   55   60 1   
    60   60   61 1   
    61   60   68 1   
    62   61   62 1   
    63   61   64 1   
    64   61   69 1   
    65   62   63 2   
    66   62   72 1   
    67   64   65 1   
    68   64   70 1   
    69   64   71 1   
    70   65   66 1   
    71   65   67 1   
    72   72   73 1   
    73   72   76 1   
    74   73   74 1   
    75   73   77 1   
    76   73   78 1   
    77   74   75 2   
    78   74   79 1   
    79   79   80 1   
    80   79   86 1   
    81   80   81 1   
    82   80   83 1   
    83   80   87 1   
    84   81   82 2   
    85   81   93 1   
    86   83   84 1   
    87   83   85 1   
    88   83   88 1   
    89   84   90 1   
    90   84   91 1   
    91   84   92 1   
    92   85   89 1   
    93   93   94 1   
    94   93  101 1   
    95   94   95 1   
    96   94   97 1   
    97   94  102 1   
    98   95   96 2   
    99   95  112 1   
   100   97   98 1   
   101   97   99 1   
   102   97  103 1   
   103   98  100 1   
   104   98  104 1   
   105   98  105 1   
   106   99  106 1   
   107   99  107 1   
   108   99  108 1   
   109  100  109 1   
   110  100  110 1   
   111  100  111 1   
   112  112  113 1   
   113  112  119 1   
   114  113  114 1   
   115  113  116 1   
   116  113  120 1   
   117  114  115 2   
   118  114  126 1   
   119  116  117 1   
   120  116  118 1   
   121  116  121 1   
   122  117  123 1   
   123  117  124 1   
   124  117  125 1   
   125  118  122 1   
   126  126  127 1   
   127  126  133 1   
   128  127  128 1   
   129  127  130 1   
   130  127  134 1   
   131  128  129 2   
   132  128  140 1   
   133  130  131 1   
   134  130  132 1   
   135  130  135 1   
   136  131  137 1   
   137  131  138 1   
   138  131  139 1   
   139  132  136 1   
   140  140  141 1   
   141  140  149 1   
   142  141  142 1   
   143  141  144 1   
   144  141  150 1   
   145  142  143 2   
   146  142  162 1   
   147  144  145 1   
   148  144  151 1   
   149  144  152 1   
   150  145  146 1   
   151  145  153 1   
   152  145  154 1   
   153  146  147 1   
   154  146  155 1   
   155  146  156 1   
   156  147  148 1   
   157  147  157 1   
   158  147  158 1   
   159  148  159 1   
   160  148  160 1   
   161  148  161 1   
   162  162  163 1   
   163  162  171 1   
   164  163  164 1   
   165  163  166 1   
   166  163  172 1   
   167  164  165 2   
   168  164  177 1   
   169  166  167 1   
   170  166  173 1   
   171  166  174 1   
   172  167  168 1   
   173  167  175 1   
   174  167  176 1   
   175  168  169 1   
   176  168  170 1   
   177  177  178 1   
   178  177  182 1   
   179  178  179 1   
   180  178  180 1   
   181  178  181 1   
   182  184  185 1   
   183  184  186 1   
   184  187  188 1   
   185  187  189 1   
   186  190  191 1   
   187  190  192 1   
   188  193  194 1   
   189  193  195 1   
   190  196  197 1   
   191  196  198 1   
@<TRIPOS>SUBSTRUCTURE
     1 MOL         1 TEMP              0 ****  ****    0 ROOT
