@<TRIPOS>MOLECULE
MOL
  178   175     1     0     0
SMALL
resp


@<TRIPOS>ATOM
      1 C1          1.8210   -0.9880    5.4680 c3        1 MOL     -0.265586
      2 C2          2.7300   -0.5290    4.3540 c         1 MOL      0.697198
      3 O1          2.4480    0.3500    3.5530 o         1 MOL     -0.564821
      4 H1          2.2260   -0.6610    6.4260 hc        1 MOL      0.059642
      5 H2          0.8290   -0.5590    5.3280 hc        1 MOL      0.059642
      6 H3          1.7510   -2.0750    5.4560 hc        1 MOL      0.059642
      7 N1          3.9430   -1.0820    4.3120 n         1 MOL     -0.606705
      8 C3          5.0830   -0.7310    3.4760 c3        1 MOL      0.385395
      9 C4          5.4720   -1.7860    2.4760 c         1 MOL      0.441320
     10 O2          6.5820   -1.8090    2.0100 o         1 MOL     -0.353937
     11 C5          6.1990   -0.2140    4.3710 c3        1 MOL     -0.386095
     12 C6          7.3500    0.4660    3.7180 c         1 MOL      0.758259
     13 O3          7.1100    1.3900    2.9750 o         1 MOL     -0.709176
     14 O4          8.5140    0.0590    3.9070 o         1 MOL     -0.709176
     15 H4          4.0780   -1.6980    5.0950 hn        1 MOL      0.269866
     16 H5          4.7560    0.1450    2.9090 h1        1 MOL      0.037220
     17 H6          6.4580   -1.0670    5.0020 hc        1 MOL      0.043568
     18 H7          5.7540    0.4730    5.0860 hc        1 MOL      0.043568
     19 N2          4.5340   -2.6780    2.2240 n         1 MOL     -0.510629
     20 C7          4.5350   -3.8550    1.2100 c3        1 MOL      0.044121
     21 C8          4.7400   -3.3840   -0.2480 c         1 MOL      0.503159
     22 O5          3.9430   -3.6320   -1.1750 o         1 MOL     -0.636971
     23 C9          5.4690   -4.9780    1.6710 c3        1 MOL     -0.308547
     24 H8          3.6480   -2.5520    2.7050 hn        1 MOL      0.303177
     25 H9          3.5910   -4.3990    1.3230 h1        1 MOL      0.142714
     26 H10         5.5650   -5.7540    0.9100 hc        1 MOL      0.087800
     27 H11         6.4610   -4.6270    1.9370 hc        1 MOL      0.087800
     28 H12         5.0290   -5.5040    2.5120 hc        1 MOL      0.087800
     29 N3          5.7220   -2.5120   -0.5410 n         1 MOL     -0.202687
     30 C10         5.9600   -1.8270   -1.8010 c3        1 MOL      0.040167
     31 C11         6.1730   -0.3300   -1.7390 c         1 MOL      0.696532
     32 O6          6.3250    0.2710   -2.8020 o         1 MOL     -0.632783
     33 C12         7.1950   -2.4880   -2.5190 c3        1 MOL     -0.194123
     34 C13         8.4210   -2.6260   -1.7300 c         1 MOL      0.793445
     35 O7          9.1930   -3.5340   -2.0890 o         1 MOL     -0.743559
     36 O8          8.7680   -1.7150   -0.9750 o         1 MOL     -0.743559
     37 H13         6.3500   -2.2520    0.2060 hn        1 MOL      0.116412
     38 H14         5.0580   -1.8490   -2.4150 h1        1 MOL     -0.006772
     39 H15         7.4910   -1.9960   -3.4400 hc        1 MOL      0.003327
     40 H16         7.0490   -3.5390   -2.7610 hc        1 MOL      0.003327
     41 N4          5.9950    0.3000   -0.5440 n         1 MOL     -0.222201
     42 C14         6.2110    1.7470   -0.4620 c3        1 MOL      0.056910
     43 C15         5.0010    2.6020   -1.0430 c         1 MOL      0.503848
     44 O9          5.2050    3.7770   -1.1750 o         1 MOL     -0.538558
     45 H17         5.6460   -0.1590    0.2810 hn        1 MOL      0.118301
     46 H18         7.1050    2.0960   -0.9720 h1        1 MOL      0.057416
     47 H19         6.2860    2.0630    0.5830 h1        1 MOL      0.057416
     48 N5          3.8050    2.0580   -1.4660 n         1 MOL     -0.329149
     49 C16         2.7440    2.6620   -2.2120 c3        1 MOL     -0.076100
     50 C17         2.1700    3.9090   -1.5590 c         1 MOL      0.501000
     51 O10         1.8790    4.0200   -0.3580 o         1 MOL     -0.450265
     52 C18         1.7030    1.5710   -2.5310 c3        1 MOL     -0.220590
     53 C19         2.3380    0.3260   -3.0920 c         1 MOL      0.651148
     54 N6          2.7140    0.3960   -4.3560 n         1 MOL     -0.694113
     55 O11         2.4130   -0.6610   -2.3740 o         1 MOL     -0.635293
     56 H20         3.6940    1.0820   -1.2280 hn        1 MOL      0.232238
     57 H21         3.2050    2.9060   -3.1700 h1        1 MOL      0.058490
     58 H22         1.0000    2.0210   -3.2250 hc        1 MOL      0.105496
     59 H23         1.1910    1.2660   -1.6150 hc        1 MOL      0.105496
     60 H24         2.4680    1.2040   -4.9040 hn        1 MOL      0.331847
     61 H25         3.0850   -0.4350   -4.7930 hn        1 MOL      0.331847
     62 N7          2.0530    4.9080   -2.4490 n         1 MOL     -0.323711
     63 C20         1.6960    6.2760   -1.9950 c3        1 MOL     -0.356658
     64 C21         0.1760    6.5310   -1.8710 c         1 MOL      0.680642
     65 O12        -0.6300    5.8950   -2.5340 o         1 MOL     -0.526320
     66 H26         2.1520    4.7030   -3.4390 hn        1 MOL      0.284932
     67 H27         2.1160    6.9710   -2.7130 h1        1 MOL      0.155543
     68 H28         2.1000    6.3650   -0.9880 h1        1 MOL      0.155543
     69 N8         -0.1700    7.4510   -0.9710 n         1 MOL     -0.489959
     70 C22        -1.5350    7.8440   -0.6870 c3        1 MOL     -0.294706
     71 C23        -2.4410    6.7440   -0.1480 c         1 MOL      0.469204
     72 O13        -3.5540    7.0010    0.2840 o         1 MOL     -0.559314
     73 C24        -1.5420    9.0650    0.2280 c3        1 MOL      0.606948
     74 C25        -1.0820    8.8730    1.7440 c3        1 MOL     -0.252798
     75 O14        -0.8090   10.1040   -0.3530 oh        1 MOL     -0.664837
     76 H29         0.5890    7.8360   -0.4320 hn        1 MOL      0.258907
     77 H30        -1.8490    8.2660   -1.6420 h1        1 MOL      0.150099
     78 H31        -2.5790    9.3900    0.3200 h1        1 MOL     -0.009775
     79 H32         0.0900    9.7930   -0.4460 ho        1 MOL      0.383466
     80 H33        -1.9060    8.5460    2.3760 hc        1 MOL      0.046465
     81 H34        -0.2980    8.1180    1.8350 hc        1 MOL      0.046465
     82 H35        -0.7340    9.8480    2.0740 hc        1 MOL      0.046465
     83 N9         -1.9430    5.5220   -0.0990 n         1 MOL      0.000081
     84 C26        -2.5920    4.3450    0.5080 c3        1 MOL     -0.118744
     85 C27        -2.1490    3.0210   -0.2250 c         1 MOL      0.341364
     86 O15        -1.2220    3.1050   -1.0310 o         1 MOL     -0.404659
     87 C28        -2.2430    4.1940    1.9860 c3        1 MOL      0.259751
     88 C29        -0.6390    4.1990    2.1600 c3        1 MOL     -0.135877
     89 C30        -2.8500    5.2690    2.8470 c3        1 MOL     -0.416141
     90 C31        -0.3550    3.4460    3.4510 c3        1 MOL     -0.308938
     91 H36        -1.0160    5.3080   -0.4460 hn        1 MOL      0.051496
     92 H37        -3.6820    4.3060    0.4750 h1        1 MOL      0.051111
     93 H38        -2.6230    3.2220    2.3090 hc        1 MOL     -0.003022
     94 H39        -0.2870    5.2300    2.1670 hc        1 MOL      0.115981
     95 H40        -0.1470    3.7460    1.3020 hc        1 MOL      0.115981
     96 H41        -2.9580    4.9010    3.8730 hc        1 MOL      0.093231
     97 H42        -2.1250    6.0810    2.9760 hc        1 MOL      0.093231
     98 H43        -3.6730    5.8060    2.3640 hc        1 MOL      0.093231
     99 H44        -0.7120    2.4250    3.3090 hc        1 MOL      0.083253
    100 H45         0.7260    3.4050    3.6010 hc        1 MOL      0.083253
    101 H46        -0.8770    3.8220    4.3350 hc        1 MOL      0.083253
    102 N10        -2.7580    1.8280    0.0130 n         1 MOL     -0.274151
    103 C32        -2.4330    0.5140   -0.5710 c3        1 MOL     -0.142018
    104 C33        -3.6940   -0.4250   -0.5590 c         1 MOL      0.609217
    105 O16        -3.5080   -1.6050   -0.3740 o         1 MOL     -0.466199
    106 C34        -1.2020    0.0500    0.2470 c3        1 MOL     -0.064573
    107 C35        -0.2940   -0.9290   -0.4940 c         1 MOL      0.653324
    108 O17         0.6960   -1.3500    0.1870 o         1 MOL     -0.723339
    109 O18        -0.4160   -1.2680   -1.6750 o         1 MOL     -0.723339
    110 H47        -3.4300    1.7190    0.7520 hn        1 MOL      0.202814
    111 H48        -2.1570    0.7540   -1.5950 h1        1 MOL      0.087717
    112 H49        -1.5420   -0.3980    1.1720 hc        1 MOL      0.075315
    113 H50        -0.6470    0.9750    0.4560 hc        1 MOL      0.075315
    114 N11        -4.9340    0.1880   -0.6250 n         1 MOL     -0.483928
    115 C36        -6.2000   -0.5250   -0.8770 c3        1 MOL      0.317340
    116 C37        -6.3580   -1.7670    0.0340 c         1 MOL      0.297231
    117 O19        -6.5490   -1.6240    1.2230 o         1 MOL     -0.451517
    118 C38        -7.3390    0.4740   -0.6490 c3        1 MOL     -0.378831
    119 C39        -8.7750   -0.1050   -0.8080 ca        1 MOL      0.153889
    120 C40        -9.1970   -0.7430   -1.9800 ca        1 MOL     -0.142182
    121 C41        -9.7680    0.0930    0.1770 ca        1 MOL     -0.142182
    122 C42       -10.4470   -1.3310   -2.1550 ca        1 MOL     -0.132500
    123 C43       -11.0400   -0.3940   -0.0150 ca        1 MOL     -0.132500
    124 C44       -11.3620   -1.0860   -1.1670 ca        1 MOL     -0.121036
    125 H51        -4.9400    1.1570   -0.9230 hn        1 MOL      0.243921
    126 H52        -6.1930   -0.8950   -1.9030 h1        1 MOL     -0.015590
    127 H53        -7.2400    1.1930   -1.4570 hc        1 MOL      0.128968
    128 H54        -7.1640    0.7790    0.3850 hc        1 MOL      0.128968
    129 H55        -8.4610   -0.8190   -2.7650 ha        1 MOL      0.105074
    130 H56        -9.6010    0.7420    1.0340 ha        1 MOL      0.105074
    131 H57       -10.6380   -1.9640   -2.9980 ha        1 MOL      0.118137
    132 H58       -11.7640   -0.2830    0.7760 ha        1 MOL      0.118137
    133 H59       -12.3720   -1.4770   -1.1360 ha        1 MOL      0.098786
    134 N12        -6.3530   -3.0230   -0.5710 n         1 MOL     -0.031561
    135 C45        -6.5690   -4.2580    0.1540 c3        1 MOL     -0.008202
    136 C46        -5.4910   -4.5020    1.3010 c         1 MOL      0.274513
    137 O20        -5.7540   -5.2920    2.2120 o         1 MOL     -0.510273
    138 C47        -6.6050   -5.4120   -0.8830 c3        1 MOL     -0.044867
    139 C48        -5.8320   -4.8600   -2.0990 c3        1 MOL     -0.000255
    140 C49        -6.2690   -3.3330   -1.9490 c3        1 MOL     -0.036495
    141 H60        -7.5220   -4.3360    0.6870 h1        1 MOL      0.071345
    142 H61        -6.1350   -6.3400   -0.5620 hc        1 MOL      0.036595
    143 H62        -7.6140   -5.6480   -1.2150 hc        1 MOL      0.036595
    144 H63        -4.7620   -5.0060   -1.9480 hc        1 MOL      0.023922
    145 H64        -6.2280   -5.2330   -3.0430 hc        1 MOL      0.023922
    146 H65        -5.5790   -2.6560   -2.4530 h1        1 MOL      0.012770
    147 H66        -7.2600   -3.1290   -2.3630 h1        1 MOL      0.012770
    148 N13        -4.3000   -3.8640    1.2570 n         1 MOL      0.031309
    149 C50        -3.3010   -3.8540    2.3230 c3        1 MOL     -0.212034
    150 C51        -3.4050   -2.8650    3.4100 c         1 MOL      0.427245
    151 O21        -2.9280   -3.0230    4.5600 o         1 MOL     -0.526214
    152 C52        -1.9470   -3.5880    1.6370 c3        1 MOL      0.141895
    153 C53        -1.4700   -4.7420    0.8120 c3        1 MOL     -0.129449
    154 C54        -0.2960   -4.4270   -0.0900 c         1 MOL      0.850270
    155 O22         0.8740   -4.3070    0.3160 o         1 MOL     -0.830683
    156 O23        -0.5590   -4.3490   -1.2870 o         1 MOL     -0.830683
    157 H67        -4.1160   -3.2350    0.4880 hn        1 MOL      0.138789
    158 H68        -3.2480   -4.8700    2.7070 h1        1 MOL      0.120575
    159 H69        -1.2150   -3.3760    2.4270 hc        1 MOL      0.009237
    160 H70        -2.0170   -2.6600    1.0740 hc        1 MOL      0.009237
    161 H71        -2.2930   -5.1940    0.2490 hc        1 MOL     -0.002472
    162 H72        -1.1590   -5.5340    1.4860 hc        1 MOL     -0.002472
    163 N14        -4.1820   -1.7530    3.1120 n         1 MOL     -0.089122
    164 C55        -4.4440   -0.6390    4.0300 c3        1 MOL     -0.334005
    165 H73        -3.5490   -0.4370    4.6200 h1        1 MOL      0.118487
    166 H74        -4.7100    0.2500    3.4580 h1        1 MOL      0.118487
    167 H75        -5.2660   -0.9020    4.6960 h1        1 MOL      0.118487
    168 H76        -4.6110   -1.6940    2.2070 hn        1 MOL      0.118196
    169 Ca1         1.5390   -3.0910   -2.0070 Ca        1 MOL      1.758535
    170 O24         3.2880   -2.9090   -4.0550 oh        1 MOL     -0.809460
    171 H77         3.2780   -3.7130   -4.5720 ho        1 MOL      0.403175
    172 H78         3.8570   -2.3180   -4.5510 ho        1 MOL      0.403175
    173 O25         0.3700   -2.8740   -4.5000 oh        1 MOL     -0.809460
    174 H79        -0.1990   -2.1150   -4.5870 ho        1 MOL      0.403175
    175 H80         0.1700   -3.4160   -5.2650 ho        1 MOL      0.403175
    176 O26         1.8730   -5.5800   -2.9960 oh        1 MOL     -0.809460
    177 H81         1.7120   -6.0310   -3.8260 ho        1 MOL      0.403175
    178 H82         2.3490   -6.2220   -2.4690 ho        1 MOL      0.403175
@<TRIPOS>BOND
     1    1    2 1   
     2    1    4 1   
     3    1    5 1   
     4    1    6 1   
     5    2    3 2   
     6    2    7 1   
     7    7    8 1   
     8    7   15 1   
     9    8    9 1   
    10    8   11 1   
    11    8   16 1   
    12    9   10 2   
    13    9   19 1   
    14   11   12 1   
    15   11   17 1   
    16   11   18 1   
    17   12   13 1   
    18   12   14 1   
    19   19   20 1   
    20   19   24 1   
    21   20   21 1   
    22   20   23 1   
    23   20   25 1   
    24   21   22 2   
    25   21   29 1   
    26   23   26 1   
    27   23   27 1   
    28   23   28 1   
    29   29   30 1   
    30   29   37 1   
    31   30   31 1   
    32   30   33 1   
    33   30   38 1   
    34   31   32 2   
    35   31   41 1   
    36   33   34 1   
    37   33   39 1   
    38   33   40 1   
    39   34   35 1   
    40   34   36 1   
    41   41   42 1   
    42   41   45 1   
    43   42   43 1   
    44   42   46 1   
    45   42   47 1   
    46   43   44 2   
    47   43   48 1   
    48   48   49 1   
    49   48   56 1   
    50   49   50 1   
    51   49   52 1   
    52   49   57 1   
    53   50   51 2   
    54   50   62 1   
    55   52   53 1   
    56   52   58 1   
    57   52   59 1   
    58   53   54 1   
    59   53   55 2   
    60   54   60 1   
    61   54   61 1   
    62   62   63 1   
    63   62   66 1   
    64   63   64 1   
    65   63   67 1   
    66   63   68 1   
    67   64   65 2   
    68   64   69 1   
    69   69   70 1   
    70   69   76 1   
    71   70   71 1   
    72   70   73 1   
    73   70   77 1   
    74   71   72 2   
    75   71   83 1   
    76   73   74 1   
    77   73   75 1   
    78   73   78 1   
    79   74   80 1   
    80   74   81 1   
    81   74   82 1   
    82   75   79 1   
    83   83   84 1   
    84   83   91 1   
    85   84   85 1   
    86   84   87 1   
    87   84   92 1   
    88   85   86 2   
    89   85  102 1   
    90   87   88 1   
    91   87   89 1   
    92   87   93 1   
    93   88   90 1   
    94   88   94 1   
    95   88   95 1   
    96   89   96 1   
    97   89   97 1   
    98   89   98 1   
    99   90   99 1   
   100   90  100 1   
   101   90  101 1   
   102  102  103 1   
   103  102  110 1   
   104  103  104 1   
   105  103  106 1   
   106  103  111 1   
   107  104  105 2   
   108  104  114 1   
   109  106  107 1   
   110  106  112 1   
   111  106  113 1   
   112  107  108 1   
   113  107  109 1   
   114  114  115 1   
   115  114  125 1   
   116  115  116 1   
   117  115  118 1   
   118  115  126 1   
   119  116  117 2   
   120  116  134 1   
   121  118  119 1   
   122  118  127 1   
   123  118  128 1   
   124  119  120 ar  
   125  119  121 ar  
   126  120  122 ar  
   127  120  129 1   
   128  121  123 ar  
   129  121  130 1   
   130  122  124 ar  
   131  122  131 1   
   132  123  124 ar  
   133  123  132 1   
   134  124  133 1   
   135  134  135 1   
   136  134  140 1   
   137  135  136 1   
   138  135  138 1   
   139  135  141 1   
   140  136  137 2   
   141  136  148 1   
   142  138  139 1   
   143  138  142 1   
   144  138  143 1   
   145  139  140 1   
   146  139  144 1   
   147  139  145 1   
   148  140  146 1   
   149  140  147 1   
   150  148  149 1   
   151  148  157 1   
   152  149  150 1   
   153  149  152 1   
   154  149  158 1   
   155  150  151 2   
   156  150  163 1   
   157  152  153 1   
   158  152  159 1   
   159  152  160 1   
   160  153  154 1   
   161  153  161 1   
   162  153  162 1   
   163  154  155 1   
   164  154  156 1   
   165  163  164 1   
   166  163  168 1   
   167  164  165 1   
   168  164  166 1   
   169  164  167 1   
   170  170  171 1   
   171  170  172 1   
   172  173  174 1   
   173  173  175 1   
   174  176  177 1   
   175  176  178 1   
@<TRIPOS>SUBSTRUCTURE
     1 MOL         1 TEMP              0 ****  ****    0 ROOT
