@<TRIPOS>MOLECULE
MOL
  178   175     1     0     0
SMALL
resp


@<TRIPOS>ATOM
      1 C1          1.9600   -0.9920    5.3410 c3        1 MOL     -0.374485
      2 C2          3.1130   -0.6200    4.3150 c         1 MOL      0.583479
      3 O1          3.0280    0.3010    3.5230 o         1 MOL     -0.509737
      4 H1          0.9940   -0.9230    4.8410 hc        1 MOL      0.094974
      5 H2          2.1100   -2.0100    5.7020 hc        1 MOL      0.094974
      6 H3          1.9850   -0.3000    6.1820 hc        1 MOL      0.094974
      7 N1          4.2660   -1.2850    4.4190 n         1 MOL     -0.390850
      8 C3          5.5370   -1.0220    3.6680 c3        1 MOL     -0.097555
      9 C4          5.8310   -1.8620    2.4040 c         1 MOL      0.625555
     10 O2          6.6820   -1.4990    1.5660 o         1 MOL     -0.518743
     11 C5          6.7500   -1.0020    4.7010 c3        1 MOL     -0.142195
     12 C6          8.1010   -0.5130    4.2160 c         1 MOL      0.721133
     13 O3          8.9600   -1.3620    4.0860 o         1 MOL     -0.729490
     14 O4          8.3340    0.7080    4.0390 o         1 MOL     -0.729490
     15 H4          4.3160   -2.1290    4.9630 hn        1 MOL      0.243374
     16 H5          5.3890    0.0150    3.3700 h1        1 MOL      0.121334
     17 H6          6.8030   -2.0130    5.1040 hc        1 MOL      0.008467
     18 H7          6.5020   -0.4510    5.6080 hc        1 MOL      0.008467
     19 N2          5.0730   -2.9220    2.1380 n         1 MOL     -0.621335
     20 C7          4.8430   -3.7410    1.0220 c3        1 MOL      0.329181
     21 C8          4.6390   -3.1310   -0.3220 c         1 MOL      0.734542
     22 O5          3.5100   -3.2400   -0.8880 o         1 MOL     -0.849395
     23 C9          5.8370   -4.8980    1.0200 c3        1 MOL     -0.411902
     24 H8          4.6220   -3.1320    3.0250 hn        1 MOL      0.311138
     25 H9          3.8990   -4.2250    1.2890 h1        1 MOL      0.024864
     26 H10         6.8250   -4.5290    0.7610 hc        1 MOL      0.113136
     27 H11         5.7900   -5.3730    1.9990 hc        1 MOL      0.113136
     28 H12         5.5470   -5.5880    0.2250 hc        1 MOL      0.113136
     29 N3          5.6510   -2.4680   -0.9070 n         1 MOL     -0.471792
     30 C10         5.6500   -1.7250   -2.1910 c3        1 MOL      0.199808
     31 C11         5.9750   -0.2460   -2.1560 c         1 MOL      0.559215
     32 O6          6.3980    0.4010   -3.1190 o         1 MOL     -0.541308
     33 C12         6.4110   -2.3560   -3.3380 c3        1 MOL     -0.380522
     34 C13         6.2630   -3.9460   -3.4280 c         1 MOL      0.886470
     35 O7          5.2750   -4.3990   -3.9490 o         1 MOL     -0.753025
     36 O8          7.1960   -4.6540   -3.0760 o         1 MOL     -0.753025
     37 H13         6.4750   -2.2970   -0.3540 hn        1 MOL      0.287015
     38 H14         4.6000   -1.6500   -2.4650 h1        1 MOL      0.012204
     39 H15         7.4710   -2.1180   -3.2900 hc        1 MOL      0.058855
     40 H16         5.9370   -1.9850   -4.2470 hc        1 MOL      0.058855
     41 N4          5.7670    0.2230   -0.9380 n         1 MOL     -0.291213
     42 C14         5.9240    1.6190   -0.5370 c3        1 MOL     -0.188807
     43 C15         5.1060    2.6020   -1.3940 c         1 MOL      0.638421
     44 O9          5.5930    3.6320   -1.8630 o         1 MOL     -0.569098
     45 H17         5.3030   -0.3820   -0.2710 hn        1 MOL      0.221977
     46 H18         6.9850    1.8580   -0.5780 h1        1 MOL      0.110345
     47 H19         5.6500    1.7400    0.5140 h1        1 MOL      0.110345
     48 N5          3.8590    2.2520   -1.5390 n         1 MOL     -0.383123
     49 C16         2.8290    2.9520   -2.3010 c3        1 MOL     -0.195159
     50 C17         2.4840    4.3230   -1.7640 c         1 MOL      0.568198
     51 O10         2.4220    4.5100   -0.5180 o         1 MOL     -0.484057
     52 C18         1.6240    1.9920   -2.4160 c3        1 MOL     -0.093871
     53 C19         1.8930    0.6950   -3.1950 c         1 MOL      0.489051
     54 N6          2.3180    0.8220   -4.4910 n         1 MOL     -0.619963
     55 O11         1.7170   -0.3930   -2.6470 o         1 MOL     -0.506244
     56 H20         3.6400    1.4040   -1.0320 hn        1 MOL      0.293169
     57 H21         3.1500    3.1430   -3.3300 h1        1 MOL      0.102823
     58 H22         0.9200    2.5890   -2.9990 hc        1 MOL      0.084180
     59 H23         1.1350    1.8300   -1.4580 hc        1 MOL      0.084180
     60 H24         2.4910    1.7080   -4.9520 hn        1 MOL      0.307275
     61 H25         2.3000    0.0240   -5.1120 hn        1 MOL      0.307275
     62 N7          2.1170    5.3180   -2.6110 n         1 MOL     -0.395584
     63 C20         1.6800    6.6200   -2.2010 c3        1 MOL     -0.076134
     64 C21         0.1460    6.7290   -1.8950 c         1 MOL      0.605453
     65 O12        -0.6950    6.1540   -2.5930 o         1 MOL     -0.517485
     66 H26         2.1840    5.1000   -3.5940 hn        1 MOL      0.282285
     67 H27         1.8590    7.3920   -2.9580 h1        1 MOL      0.071797
     68 H28         2.2060    6.9780   -1.3160 h1        1 MOL      0.071797
     69 N8         -0.1410    7.4170   -0.8100 n         1 MOL     -0.583528
     70 C22        -1.5520    7.7270   -0.4780 c3        1 MOL     -0.190872
     71 C23        -2.2380    6.6240    0.3010 c         1 MOL      0.445092
     72 O13        -3.3350    6.7140    0.8380 o         1 MOL     -0.581795
     73 C24        -1.6490    9.1150    0.2150 c3        1 MOL      0.507481
     74 C25        -1.3590    9.1030    1.7250 c3        1 MOL     -0.282492
     75 O14        -0.8210   10.1170   -0.3770 oh        1 MOL     -0.602871
     76 H29         0.6180    7.6970   -0.2080 hn        1 MOL      0.346320
     77 H30        -2.1720    7.9230   -1.3540 h1        1 MOL      0.156818
     78 H31        -2.6710    9.4710    0.1290 h1        1 MOL      0.001659
     79 H32         0.0300    9.7000   -0.2240 ho        1 MOL      0.344404
     80 H33        -2.1400    8.6300    2.3240 hc        1 MOL      0.059708
     81 H34        -0.3690    8.6610    1.8220 hc        1 MOL      0.059708
     82 H35        -1.2550   10.1380    2.0610 hc        1 MOL      0.059708
     83 N9         -1.6510    5.4630    0.2950 n         1 MOL     -0.074183
     84 C26        -1.9220    4.2330    1.1170 c3        1 MOL     -0.052880
     85 C27        -1.9170    3.0170    0.1730 c         1 MOL      0.393458
     86 O15        -1.2490    3.0520   -0.8600 o         1 MOL     -0.475963
     87 C28        -0.9900    4.0130    2.3190 c3        1 MOL      0.239741
     88 C29         0.4720    3.8300    1.8040 c3        1 MOL      0.051640
     89 C30        -1.2350    5.1880    3.3280 c3        1 MOL     -0.469729
     90 C31         1.4500    3.7010    2.9180 c3        1 MOL     -0.227460
     91 H36        -0.7840    5.5260   -0.2250 hn        1 MOL      0.107532
     92 H37        -2.9630    4.3260    1.4470 h1        1 MOL      0.067819
     93 H38        -1.3090    3.0590    2.7410 hc        1 MOL     -0.026749
     94 H39         0.7530    4.7830    1.3550 hc        1 MOL      0.044657
     95 H40         0.5360    2.9790    1.1250 hc        1 MOL      0.044657
     96 H41        -1.0710    4.8490    4.3570 hc        1 MOL      0.112194
     97 H42        -0.5870    6.0390    3.1410 hc        1 MOL      0.112194
     98 H43        -2.2550    5.5540    3.2460 hc        1 MOL      0.112194
     99 H44         1.0710    2.9980    3.6610 hc        1 MOL      0.051727
    100 H45         2.4020    3.3310    2.5340 hc        1 MOL      0.051727
    101 H46         1.5440    4.6480    3.4490 hc        1 MOL      0.051727
    102 N10        -2.5310    1.8960    0.5660 n         1 MOL     -0.515350
    103 C32        -2.2350    0.6160   -0.1100 c3        1 MOL      0.201148
    104 C33        -3.5160   -0.2230   -0.1480 c         1 MOL      0.437673
    105 O16        -3.3990   -1.4480    0.0600 o         1 MOL     -0.431370
    106 C34        -1.0790   -0.0090    0.6870 c3        1 MOL      0.075983
    107 C35        -0.3230   -1.0040   -0.1350 c         1 MOL      0.622256
    108 O17         0.7640   -1.4480    0.2890 o         1 MOL     -0.729609
    109 O18        -0.8080   -1.3250   -1.2200 o         1 MOL     -0.729609
    110 H47        -3.1740    1.8820    1.3380 hn        1 MOL      0.263574
    111 H48        -1.9690    0.8050   -1.1540 h1        1 MOL      0.056801
    112 H49        -1.4230   -0.5280    1.5840 hc        1 MOL     -0.002292
    113 H50        -0.3820    0.6980    1.1240 hc        1 MOL     -0.002292
    114 N11        -4.6650    0.3700   -0.4070 n         1 MOL     -0.425351
    115 C36        -5.9670   -0.2510   -0.7750 c3        1 MOL      0.108534
    116 C37        -6.4040   -1.4380    0.1030 c         1 MOL      0.375984
    117 O19        -6.6330   -1.1210    1.3010 o         1 MOL     -0.527275
    118 C38        -7.0000    0.8410   -0.8070 c3        1 MOL     -0.267125
    119 C39        -8.3570    0.2420   -1.1130 ca        1 MOL      0.127888
    120 C40        -8.6430   -0.1090   -2.4420 ca        1 MOL     -0.242475
    121 C41        -9.2840   -0.1580   -0.0800 ca        1 MOL     -0.242475
    122 C42        -9.8060   -0.8770   -2.7330 ca        1 MOL     -0.010342
    123 C43       -10.3690   -0.9550   -0.3740 ca        1 MOL     -0.010342
    124 C44       -10.6860   -1.3010   -1.7520 ca        1 MOL     -0.223940
    125 H51        -4.6450    1.3770   -0.5460 hn        1 MOL      0.279408
    126 H52        -5.8330   -0.6530   -1.7850 h1        1 MOL      0.022899
    127 H53        -6.6780    1.6040   -1.5240 hc        1 MOL      0.111528
    128 H54        -7.0540    1.3680    0.1460 hc        1 MOL      0.111528
    129 H55        -7.9850    0.2220   -3.2410 ha        1 MOL      0.154227
    130 H56        -9.1630    0.2110    0.9300 ha        1 MOL      0.154227
    131 H57       -10.0680   -1.0680   -3.7620 ha        1 MOL      0.087411
    132 H58       -11.0740   -1.2560    0.3800 ha        1 MOL      0.087411
    133 H59       -11.5260   -1.9360   -2.0010 ha        1 MOL      0.134810
    134 N12        -6.4700   -2.6710   -0.3730 n         1 MOL      0.094883
    135 C45        -6.7440   -3.8100    0.5010 c3        1 MOL     -0.074707
    136 C46        -5.6790   -4.1440    1.5980 c         1 MOL      0.181879
    137 O20        -6.0190   -4.9370    2.4830 o         1 MOL     -0.506830
    138 C47        -6.8970   -4.9660   -0.4900 c3        1 MOL      0.083037
    139 C48        -7.3780   -4.2630   -1.7490 c3        1 MOL     -0.196330
    140 C49        -6.6940   -2.8990   -1.7450 c3        1 MOL      0.249841
    141 H60        -7.7030   -3.5920    0.9630 h1        1 MOL      0.079176
    142 H61        -5.8830   -5.3540   -0.5950 hc        1 MOL      0.026418
    143 H62        -7.5510   -5.8100   -0.2880 hc        1 MOL      0.026418
    144 H63        -6.9690   -4.8320   -2.5780 hc        1 MOL      0.033403
    145 H64        -8.4600   -4.1730   -1.7680 hc        1 MOL      0.033403
    146 H65        -5.7130   -3.0300   -2.2160 h1        1 MOL     -0.049257
    147 H66        -7.3110   -2.1690   -2.2720 h1        1 MOL     -0.049257
    148 N13        -4.4840   -3.6350    1.5460 n         1 MOL      0.109695
    149 C50        -3.4900   -3.7350    2.6600 c3        1 MOL     -0.094390
    150 C51        -3.6750   -2.6930    3.7100 c         1 MOL      0.504024
    151 O21        -3.6020   -3.0720    4.8690 o         1 MOL     -0.560492
    152 C52        -2.0310   -3.7720    2.0330 c3        1 MOL     -0.057782
    153 C53        -1.9050   -4.8120    0.9040 c3        1 MOL      0.003192
    154 C54        -0.7680   -4.5560   -0.0160 c         1 MOL      0.576664
    155 O22         0.3930   -4.3430    0.4360 o         1 MOL     -0.702919
    156 O23        -1.0030   -4.4680   -1.2570 o         1 MOL     -0.702919
    157 H67        -4.3630   -2.9720    0.7940 hn        1 MOL     -0.000836
    158 H68        -3.7050   -4.7200    3.0610 h1        1 MOL      0.088164
    159 H69        -1.3340   -3.8950    2.8740 hc        1 MOL      0.042832
    160 H70        -1.7920   -2.7970    1.6120 hc        1 MOL      0.042832
    161 H71        -2.7980   -4.9280    0.2870 hc        1 MOL     -0.011379
    162 H72        -1.7230   -5.7760    1.3850 hc        1 MOL     -0.011379
    163 N14        -4.1090   -1.5120    3.3790 n         1 MOL     -0.149443
    164 C55        -4.3410   -0.3690    4.2930 c3        1 MOL     -0.342308
    165 H73        -5.1490   -0.6140    4.9820 h1        1 MOL      0.128302
    166 H74        -3.4310   -0.1650    4.8580 h1        1 MOL      0.128302
    167 H75        -4.6130    0.5120    3.7130 h1        1 MOL      0.128302
    168 H76        -4.3040   -1.3100    2.4040 hn        1 MOL      0.183037
    169 Ca1         1.1810   -3.0150   -1.7530 Ca        1 MOL      1.783203
    170 O24        -0.0530   -3.3210   -4.0070 oh        1 MOL     -0.792790
    171 H77        -0.1560   -2.5820   -4.6120 ho        1 MOL      0.383873
    172 H78         0.0420   -4.0810   -4.5740 ho        1 MOL      0.383873
    173 O25         2.9980   -3.0960   -3.9750 oh        1 MOL     -0.792790
    174 H79         2.6490   -3.5620   -4.7360 ho        1 MOL      0.383873
    175 H80         3.8460   -3.4970   -3.8030 ho        1 MOL      0.383873
    176 O26         1.6290   -5.3950   -2.9580 oh        1 MOL     -0.792790
    177 H81         2.5440   -5.5670   -3.1490 ho        1 MOL      0.383873
    178 H82         1.1940   -6.2370   -3.0660 ho        1 MOL      0.383873
@<TRIPOS>BOND
     1    1    2 1   
     2    1    4 1   
     3    1    5 1   
     4    1    6 1   
     5    2    3 2   
     6    2    7 1   
     7    7    8 1   
     8    7   15 1   
     9    8    9 1   
    10    8   11 1   
    11    8   16 1   
    12    9   10 2   
    13    9   19 1   
    14   11   12 1   
    15   11   17 1   
    16   11   18 1   
    17   12   13 1   
    18   12   14 1   
    19   19   20 1   
    20   19   24 1   
    21   20   21 1   
    22   20   23 1   
    23   20   25 1   
    24   21   22 2   
    25   21   29 1   
    26   23   26 1   
    27   23   27 1   
    28   23   28 1   
    29   29   30 1   
    30   29   37 1   
    31   30   31 1   
    32   30   33 1   
    33   30   38 1   
    34   31   32 2   
    35   31   41 1   
    36   33   34 1   
    37   33   39 1   
    38   33   40 1   
    39   34   35 1   
    40   34   36 1   
    41   41   42 1   
    42   41   45 1   
    43   42   43 1   
    44   42   46 1   
    45   42   47 1   
    46   43   44 2   
    47   43   48 1   
    48   48   49 1   
    49   48   56 1   
    50   49   50 1   
    51   49   52 1   
    52   49   57 1   
    53   50   51 2   
    54   50   62 1   
    55   52   53 1   
    56   52   58 1   
    57   52   59 1   
    58   53   54 1   
    59   53   55 2   
    60   54   60 1   
    61   54   61 1   
    62   62   63 1   
    63   62   66 1   
    64   63   64 1   
    65   63   67 1   
    66   63   68 1   
    67   64   65 2   
    68   64   69 1   
    69   69   70 1   
    70   69   76 1   
    71   70   71 1   
    72   70   73 1   
    73   70   77 1   
    74   71   72 2   
    75   71   83 1   
    76   73   74 1   
    77   73   75 1   
    78   73   78 1   
    79   74   80 1   
    80   74   81 1   
    81   74   82 1   
    82   75   79 1   
    83   83   84 1   
    84   83   91 1   
    85   84   85 1   
    86   84   87 1   
    87   84   92 1   
    88   85   86 2   
    89   85  102 1   
    90   87   88 1   
    91   87   89 1   
    92   87   93 1   
    93   88   90 1   
    94   88   94 1   
    95   88   95 1   
    96   89   96 1   
    97   89   97 1   
    98   89   98 1   
    99   90   99 1   
   100   90  100 1   
   101   90  101 1   
   102  102  103 1   
   103  102  110 1   
   104  103  104 1   
   105  103  106 1   
   106  103  111 1   
   107  104  105 2   
   108  104  114 1   
   109  106  107 1   
   110  106  112 1   
   111  106  113 1   
   112  107  108 1   
   113  107  109 1   
   114  114  115 1   
   115  114  125 1   
   116  115  116 1   
   117  115  118 1   
   118  115  126 1   
   119  116  117 2   
   120  116  134 1   
   121  118  119 1   
   122  118  127 1   
   123  118  128 1   
   124  119  120 ar  
   125  119  121 ar  
   126  120  122 ar  
   127  120  129 1   
   128  121  123 ar  
   129  121  130 1   
   130  122  124 ar  
   131  122  131 1   
   132  123  124 ar  
   133  123  132 1   
   134  124  133 1   
   135  134  135 1   
   136  134  140 1   
   137  135  136 1   
   138  135  138 1   
   139  135  141 1   
   140  136  137 2   
   141  136  148 1   
   142  138  139 1   
   143  138  142 1   
   144  138  143 1   
   145  139  140 1   
   146  139  144 1   
   147  139  145 1   
   148  140  146 1   
   149  140  147 1   
   150  148  149 1   
   151  148  157 1   
   152  149  150 1   
   153  149  152 1   
   154  149  158 1   
   155  150  151 2   
   156  150  163 1   
   157  152  153 1   
   158  152  159 1   
   159  152  160 1   
   160  153  154 1   
   161  153  161 1   
   162  153  162 1   
   163  154  155 1   
   164  154  156 1   
   165  163  164 1   
   166  163  168 1   
   167  164  165 1   
   168  164  166 1   
   169  164  167 1   
   170  170  171 1   
   171  170  172 1   
   172  173  174 1   
   173  173  175 1   
   174  176  177 1   
   175  176  178 1   
@<TRIPOS>SUBSTRUCTURE
     1 MOL         1 TEMP              0 ****  ****    0 ROOT
