@<TRIPOS>MOLECULE
MOL
  186   183     1     0     0
SMALL
resp


@<TRIPOS>ATOM
      1 C1        -12.3240   -4.9550   -3.5990 c3        1 MOL     -0.392002
      2 C2        -11.9040   -3.6000   -2.9490 c         1 MOL      0.651352
      3 O1        -11.8710   -2.4830   -3.5070 o         1 MOL     -0.589458
      4 H1        -11.4810   -5.6460   -3.5750 hc        1 MOL      0.111963
      5 H2        -13.1590   -5.3820   -3.0430 hc        1 MOL      0.111963
      6 H3        -12.6240   -4.7850   -4.6330 hc        1 MOL      0.111963
      7 N1        -11.6270   -3.6790   -1.6060 n         1 MOL     -0.272036
      8 C3        -11.2960   -2.4790   -0.8020 c3        1 MOL     -0.660995
      9 C4         -9.7990   -2.0560   -0.9060 c         1 MOL      0.845041
     10 O2         -8.8610   -2.8290   -0.7010 o         1 MOL     -0.743657
     11 C5        -11.9140   -2.6200    0.6300 c3        1 MOL     -0.164731
     12 C6        -11.2210   -3.4220    1.6170 c         1 MOL      0.812882
     13 O3        -10.2390   -4.1130    1.3500 o         1 MOL     -0.707882
     14 O4        -11.7220   -3.4450    2.7520 o         1 MOL     -0.707882
     15 H4        -11.6550   -4.6100   -1.2060 hn        1 MOL      0.200196
     16 H5        -11.9330   -1.7240   -1.2660 h1        1 MOL      0.268475
     17 H6        -12.9410   -2.9630    0.4960 hc        1 MOL      0.109342
     18 H7        -11.9510   -1.5780    0.9560 hc        1 MOL      0.109342
     19 N2         -9.4990   -0.7760   -1.1460 n         1 MOL     -0.357208
     20 C7         -8.1860   -0.1370   -1.3650 c3        1 MOL      0.039054
     21 C8         -7.2240   -0.2380   -0.1600 c         1 MOL      0.627836
     22 O5         -7.7290   -0.2570    0.9670 o         1 MOL     -0.505494
     23 C9         -8.4320    1.3450   -1.7900 c3        1 MOL     -0.444419
     24 C10        -7.2130    1.8370   -2.6310 c3        1 MOL      0.258678
     25 C11        -7.3770    3.3040   -3.1360 c3        1 MOL      0.099482
     26 C12        -6.0580    3.7360   -3.8540 c3        1 MOL     -0.117496
     27 N3         -5.7150    2.7230   -4.8800 n4        1 MOL     -0.138521
     28 H8        -10.3420   -0.2560   -1.3490 hn        1 MOL      0.249914
     29 H9         -7.7130   -0.6800   -2.1750 h1        1 MOL      0.096769
     30 H10        -8.6290    2.0500   -0.9760 hc        1 MOL      0.138895
     31 H11        -9.2700    1.2890   -2.4760 hc        1 MOL      0.138895
     32 H12        -7.1450    1.1510   -3.4730 hc        1 MOL     -0.047935
     33 H13        -6.3480    1.7690   -1.9640 hc        1 MOL     -0.047935
     34 H14        -7.6730    3.9340   -2.3000 hc        1 MOL      0.005788
     35 H15        -8.1040    3.3340   -3.9460 hc        1 MOL      0.005788
     36 H16        -5.2580    3.8260   -3.1160 hx        1 MOL      0.105915
     37 H17        -6.2840    4.7130   -4.2740 hx        1 MOL      0.105915
     38 H18        -5.2840    1.9680   -4.3580 hn        1 MOL      0.218448
     39 H19        -6.4250    2.3730   -5.5140 hn        1 MOL      0.218448
     40 H20        -4.9830    3.1030   -5.4470 hn        1 MOL      0.218448
     41 N4         -5.9170   -0.2570   -0.4480 n         1 MOL     -0.637175
     42 C13        -4.8190   -0.4530    0.5190 c3        1 MOL      0.505161
     43 C14        -3.5860    0.3490    0.0790 c         1 MOL      0.383342
     44 O6         -3.2230    0.3200   -1.1140 o         1 MOL     -0.572945
     45 C15        -4.4200   -1.9250    0.6210 c3        1 MOL      0.028921
     46 C16        -5.5760   -2.8590    0.7900 c         1 MOL      0.412932
     47 O7         -6.1790   -3.1820   -0.2700 o         1 MOL     -0.656393
     48 O8         -5.9410   -3.2210    1.9200 o         1 MOL     -0.656393
     49 H21        -5.7270   -0.4070   -1.4310 hn        1 MOL      0.241013
     50 H22        -5.1410   -0.1570    1.5210 h1        1 MOL      0.001143
     51 H23        -3.6940   -2.0260    1.4340 hc        1 MOL      0.006356
     52 H24        -3.8690   -2.1180   -0.3080 hc        1 MOL      0.006356
     53 N5         -2.7520    0.9790    0.9030 n         1 MOL     -0.317862
     54 C17        -3.0090    1.4110    2.2560 c3        1 MOL     -0.305523
     55 C18        -2.9230    2.9810    2.3690 c         1 MOL      0.604651
     56 O9         -3.0680    3.7290    1.3680 o         1 MOL     -0.564373
     57 H25        -1.9200    1.3970    0.5030 hn        1 MOL      0.298594
     58 H26        -2.2090    1.0540    2.9040 h1        1 MOL      0.127842
     59 H27        -3.9950    1.1390    2.6240 h1        1 MOL      0.127842
     60 N6         -2.4950    3.4700    3.5290 n         1 MOL     -0.342037
     61 C19        -2.4710    4.8480    3.8740 c3        1 MOL     -0.043251
     62 C20        -1.4760    5.6070    3.0470 c         1 MOL      0.542773
     63 O10        -0.2830    5.3400    3.1790 o         1 MOL     -0.481274
     64 C21        -2.1200    4.9590    5.3930 c3        1 MOL     -0.291824
     65 C22        -1.9970    6.4190    5.8920 c         1 MOL      0.774932
     66 O11        -1.3930    6.7560    6.9350 o         1 MOL     -0.664498
     67 O12        -2.5050    7.2980    5.2000 o         1 MOL     -0.664498
     68 H28        -2.2640    2.8490    4.2820 hn        1 MOL      0.273317
     69 H29        -3.4930    5.2260    3.8740 h1        1 MOL      0.067671
     70 H30        -1.1530    4.4890    5.5550 hc        1 MOL      0.073799
     71 H31        -2.8040    4.4850    6.0970 hc        1 MOL      0.073799
     72 N7         -1.9860    6.4090    2.0560 n         1 MOL     -0.325683
     73 C23        -1.1870    7.0640    1.0170 c3        1 MOL     -0.129299
     74 C24        -0.4700    6.1730   -0.0340 c         1 MOL      0.428281
     75 O13         0.4020    6.6250   -0.8340 o         1 MOL     -0.564612
     76 H32        -2.9840    6.5330    2.0690 hn        1 MOL      0.250116
     77 H33        -0.4430    7.6630    1.5340 h1        1 MOL      0.114642
     78 H34        -1.8060    7.7440    0.4200 h1        1 MOL      0.114642
     79 N8         -0.7340    4.8530   -0.0080 n         1 MOL     -0.136174
     80 C25        -0.1690    3.8930   -0.9700 c3        1 MOL     -0.050944
     81 C26         0.4710    2.6690   -0.3180 c         1 MOL      0.455040
     82 O14        -0.0780    2.2060    0.7130 o         1 MOL     -0.477997
     83 C27        -1.2420    3.4170   -1.9070 c3        1 MOL      0.477016
     84 C28        -2.1110    4.5600   -2.5750 c3        1 MOL     -0.383961
     85 O15        -0.7600    2.6080   -2.9560 oh        1 MOL     -0.632319
     86 H35        -1.4260    4.5750    0.6730 hn        1 MOL      0.137371
     87 H36         0.6530    4.3130   -1.5490 h1        1 MOL      0.065101
     88 H37        -1.9480    2.8230   -1.3310 h1        1 MOL     -0.048014
     89 H38        -1.4810    2.0630   -3.2840 ho        1 MOL      0.380233
     90 H39        -2.5890    5.1860   -1.8300 hc        1 MOL      0.080409
     91 H40        -1.4310    5.1680   -3.1590 hc        1 MOL      0.080409
     92 H41        -2.8630    4.2640   -3.3080 hc        1 MOL      0.080409
     93 N9          1.5880    2.1850   -0.8460 n         1 MOL     -0.354336
     94 C29         2.1920    0.9720   -0.3390 c3        1 MOL     -0.012415
     95 C30         3.6540    1.1610   -0.2040 c         1 MOL      0.641516
     96 O16         4.2600    0.9260    0.8410 o         1 MOL     -0.540984
     97 C31         1.6840   -0.2220   -1.1160 c3        1 MOL     -0.005352
     98 C32         2.2240   -1.5430   -0.6020 c3        1 MOL      0.285486
     99 C33         1.8020   -0.0470   -2.6730 c3        1 MOL     -0.264544
    100 C34         1.4490   -2.7910   -1.0480 c3        1 MOL     -0.213163
    101 H42         1.8730    2.5160   -1.7570 hn        1 MOL      0.284975
    102 H43         1.9830    0.7900    0.7170 h1        1 MOL      0.081898
    103 H44         0.6230   -0.2900   -0.8700 hc        1 MOL      0.016309
    104 H45         2.2480   -1.5220    0.4920 hc        1 MOL     -0.029612
    105 H46         3.2600   -1.6410   -0.9260 hc        1 MOL     -0.029612
    106 H47         2.8880   -0.0880   -2.8160 hc        1 MOL      0.055125
    107 H48         1.3760   -0.8970   -3.2060 hc        1 MOL      0.055125
    108 H49         1.2680    0.8330   -3.0110 hc        1 MOL      0.055125
    109 H50         0.4090   -2.8050   -0.7160 hc        1 MOL      0.036556
    110 H51         1.5450   -2.8900   -2.1370 hc        1 MOL      0.036556
    111 H52         1.9220   -3.6400   -0.5610 hc        1 MOL      0.036556
    112 N10         4.2830    1.7050   -1.2710 n         1 MOL     -0.624416
    113 C35         5.6970    2.0220   -1.2110 c3        1 MOL      0.286281
    114 C36         6.3690    1.3680   -2.4260 c         1 MOL      0.398963
    115 O17         5.7390    0.9050   -3.3910 o         1 MOL     -0.500991
    116 C37         5.8940    3.4730   -1.2820 c3        1 MOL      0.098546
    117 C38         5.2820    4.4240   -0.2050 c3        1 MOL     -0.235383
    118 O18         7.2650    3.7370   -1.2550 oh        1 MOL     -0.665089
    119 H53         3.7090    1.8380   -2.0860 hn        1 MOL      0.287930
    120 H54         6.1900    1.6890   -0.2990 h1        1 MOL      0.098388
    121 H55         5.5320    3.8080   -2.2490 h1        1 MOL      0.050038
    122 H56         7.3380    4.6970   -1.3010 ho        1 MOL      0.430704
    123 H57         4.2350    4.1790   -0.0330 hc        1 MOL      0.083466
    124 H58         5.7370    4.3060    0.7840 hc        1 MOL      0.083466
    125 H59         5.3320    5.4760   -0.4770 hc        1 MOL      0.083466
    126 N11         7.6890    1.3090   -2.4830 n         1 MOL     -0.201403
    127 C39         8.6070    0.5690   -3.3720 c3        1 MOL     -0.387064
    128 C40         8.8400   -0.8340   -2.9180 c         1 MOL      0.618830
    129 O19         9.3410   -1.6240   -3.6770 o         1 MOL     -0.563515
    130 C41        10.0340    1.3060   -3.3540 c3        1 MOL      0.587102
    131 C42        10.8990    1.2000   -2.1070 c3        1 MOL     -0.391979
    132 O20         9.8820    2.6730   -3.5980 oh        1 MOL     -0.592606
    133 H60         8.1480    1.8780   -1.7910 hn        1 MOL      0.245037
    134 H61         8.1960    0.6300   -4.3780 h1        1 MOL      0.152399
    135 H62        10.6410    0.8680   -4.1380 h1        1 MOL     -0.045828
    136 H63         9.5710    2.5940   -4.5070 ho        1 MOL      0.352741
    137 H64        11.8220    1.6950   -2.3760 hc        1 MOL      0.091116
    138 H65        10.4240    1.6490   -1.2250 hc        1 MOL      0.091116
    139 H66        11.0860    0.1310   -2.0370 hc        1 MOL      0.091116
    140 N12         8.6230   -1.0210   -1.6190 n         1 MOL     -0.168874
    141 C43         8.7660   -2.3540   -0.9770 c3        1 MOL     -0.061776
    142 C44         7.7410   -2.5190    0.1540 c         1 MOL      0.475177
    143 O21         7.4500   -1.5830    0.9100 o         1 MOL     -0.514241
    144 C45        10.2350   -2.6850   -0.6110 c3        1 MOL     -0.377234
    145 C46        10.9210   -2.1310    0.6870 c3        1 MOL      0.217113
    146 C47        12.4600   -2.2070    0.8360 c3        1 MOL     -0.069963
    147 C48        13.0010   -1.5760    2.1150 c3        1 MOL     -0.062610
    148 N13        13.1570   -0.1190    2.1070 n4        1 MOL     -0.237155
    149 H67         8.0970   -0.3200   -1.1110 hn        1 MOL      0.105652
    150 H68         8.4440   -3.0540   -1.7400 h1        1 MOL      0.079072
    151 H69        10.8640   -2.3270   -1.4300 hc        1 MOL      0.112209
    152 H70        10.3140   -3.7640   -0.4870 hc        1 MOL      0.112209
    153 H71        10.4740   -2.6080    1.5630 hc        1 MOL     -0.015526
    154 H72        10.6170   -1.0840    0.7160 hc        1 MOL     -0.015526
    155 H73        12.9860   -1.6760    0.0390 hc        1 MOL      0.042710
    156 H74        12.7070   -3.2680    0.8090 hc        1 MOL      0.042710
    157 H75        13.9640   -2.0340    2.3400 hx        1 MOL      0.119591
    158 H76        12.3400   -1.9120    2.9080 hx        1 MOL      0.119591
    159 H77        12.2720    0.3470    1.9960 hn        1 MOL      0.254402
    160 H78        13.6770    0.3700    2.8330 hn        1 MOL      0.254402
    161 H79        13.6840    0.2110    1.3100 hn        1 MOL      0.254402
    162 N14         7.2770   -3.7260    0.3340 n         1 MOL     -0.350943
    163 C49         6.2240   -4.1520    1.2530 c3        1 MOL      0.219406
    164 C50         4.8380   -4.0410    0.5860 c         1 MOL      0.325829
    165 O22         4.0160   -3.2360    1.0690 o         1 MOL     -0.501234
    166 C51         6.5380   -5.4640    1.9510 c3        1 MOL     -0.037061
    167 C52         7.6580   -5.2190    2.9850 c3        1 MOL     -0.351313
    168 C53         8.1050   -6.5810    3.5690 c         1 MOL      0.704176
    169 O23         9.1920   -7.1110    3.2030 o         1 MOL     -0.671814
    170 O24         7.3900   -7.1050    4.4780 o         1 MOL     -0.671814
    171 H80         7.6260   -4.4020   -0.3330 hn        1 MOL      0.264028
    172 H81         6.1920   -3.4290    2.0770 h1        1 MOL      0.056532
    173 H82         6.7540   -6.2560    1.2290 hc        1 MOL      0.057190
    174 H83         5.6560   -5.8460    2.4870 hc        1 MOL      0.057190
    175 H84         7.4090   -4.5950    3.8480 hc        1 MOL      0.095955
    176 H85         8.5480   -4.8740    2.4630 hc        1 MOL      0.095955
    177 N15         4.4830   -4.8670   -0.3960 n         1 MOL     -0.312424
    178 C54         5.2970   -5.8920   -1.0120 c3        1 MOL     -0.114498
    179 H86         6.2330   -5.4530   -1.3580 h1        1 MOL      0.067790
    180 H87         5.5120   -6.6730   -0.2830 h1        1 MOL      0.067790
    181 H88         4.7630   -6.3220   -1.8580 h1        1 MOL      0.067790
    182 H89         3.5920   -4.6030   -0.8040 hn        1 MOL      0.282200
    183 Ca1        -7.8330   -4.6240    0.8700 Ca        1 MOL      1.704889
    184 O25        -8.3020   -5.1240    3.4900 oh        1 MOL     -0.824375
    185 H90        -9.0890   -5.4610    3.9110 ho        1 MOL      0.407288
    186 H91        -7.5820   -5.6370    3.8520 ho        1 MOL      0.407288
@<TRIPOS>BOND
     1    1    2 1   
     2    1    4 1   
     3    1    5 1   
     4    1    6 1   
     5    2    3 2   
     6    2    7 1   
     7    7    8 1   
     8    7   15 1   
     9    8    9 1   
    10    8   11 1   
    11    8   16 1   
    12    9   10 2   
    13    9   19 1   
    14   11   12 1   
    15   11   17 1   
    16   11   18 1   
    17   12   13 1   
    18   12   14 1   
    19   19   20 1   
    20   19   28 1   
    21   20   21 1   
    22   20   23 1   
    23   20   29 1   
    24   21   22 2   
    25   21   41 1   
    26   23   24 1   
    27   23   30 1   
    28   23   31 1   
    29   24   25 1   
    30   24   32 1   
    31   24   33 1   
    32   25   26 1   
    33   25   34 1   
    34   25   35 1   
    35   26   27 1   
    36   26   36 1   
    37   26   37 1   
    38   27   38 1   
    39   27   39 1   
    40   27   40 1   
    41   41   42 1   
    42   41   49 1   
    43   42   43 1   
    44   42   45 1   
    45   42   50 1   
    46   43   44 2   
    47   43   53 1   
    48   45   46 1   
    49   45   51 1   
    50   45   52 1   
    51   46   47 1   
    52   46   48 1   
    53   53   54 1   
    54   53   57 1   
    55   54   55 1   
    56   54   58 1   
    57   54   59 1   
    58   55   56 2   
    59   55   60 1   
    60   60   61 1   
    61   60   68 1   
    62   61   62 1   
    63   61   64 1   
    64   61   69 1   
    65   62   63 2   
    66   62   72 1   
    67   64   65 1   
    68   64   70 1   
    69   64   71 1   
    70   65   66 1   
    71   65   67 1   
    72   72   73 1   
    73   72   76 1   
    74   73   74 1   
    75   73   77 1   
    76   73   78 1   
    77   74   75 2   
    78   74   79 1   
    79   79   80 1   
    80   79   86 1   
    81   80   81 1   
    82   80   83 1   
    83   80   87 1   
    84   81   82 2   
    85   81   93 1   
    86   83   84 1   
    87   83   85 1   
    88   83   88 1   
    89   84   90 1   
    90   84   91 1   
    91   84   92 1   
    92   85   89 1   
    93   93   94 1   
    94   93  101 1   
    95   94   95 1   
    96   94   97 1   
    97   94  102 1   
    98   95   96 2   
    99   95  112 1   
   100   97   98 1   
   101   97   99 1   
   102   97  103 1   
   103   98  100 1   
   104   98  104 1   
   105   98  105 1   
   106   99  106 1   
   107   99  107 1   
   108   99  108 1   
   109  100  109 1   
   110  100  110 1   
   111  100  111 1   
   112  112  113 1   
   113  112  119 1   
   114  113  114 1   
   115  113  116 1   
   116  113  120 1   
   117  114  115 2   
   118  114  126 1   
   119  116  117 1   
   120  116  118 1   
   121  116  121 1   
   122  117  123 1   
   123  117  124 1   
   124  117  125 1   
   125  118  122 1   
   126  126  127 1   
   127  126  133 1   
   128  127  128 1   
   129  127  130 1   
   130  127  134 1   
   131  128  129 2   
   132  128  140 1   
   133  130  131 1   
   134  130  132 1   
   135  130  135 1   
   136  131  137 1   
   137  131  138 1   
   138  131  139 1   
   139  132  136 1   
   140  140  141 1   
   141  140  149 1   
   142  141  142 1   
   143  141  144 1   
   144  141  150 1   
   145  142  143 2   
   146  142  162 1   
   147  144  145 1   
   148  144  151 1   
   149  144  152 1   
   150  145  146 1   
   151  145  153 1   
   152  145  154 1   
   153  146  147 1   
   154  146  155 1   
   155  146  156 1   
   156  147  148 1   
   157  147  157 1   
   158  147  158 1   
   159  148  159 1   
   160  148  160 1   
   161  148  161 1   
   162  162  163 1   
   163  162  171 1   
   164  163  164 1   
   165  163  166 1   
   166  163  172 1   
   167  164  165 2   
   168  164  177 1   
   169  166  167 1   
   170  166  173 1   
   171  166  174 1   
   172  167  168 1   
   173  167  175 1   
   174  167  176 1   
   175  168  169 1   
   176  168  170 1   
   177  177  178 1   
   178  177  182 1   
   179  178  179 1   
   180  178  180 1   
   181  178  181 1   
   182  184  185 1   
   183  184  186 1   
@<TRIPOS>SUBSTRUCTURE
     1 MOL         1 TEMP              0 ****  ****    0 ROOT
