@<TRIPOS>MOLECULE
MOL
  175   173     1     0     0
SMALL
resp


@<TRIPOS>ATOM
      1 C1         -6.6580    7.8070    1.3890 c3        1 MOL     -0.296566
      2 C2         -7.6340    6.9620    0.5780 c         1 MOL      0.725026
      3 O1         -7.6560    7.1090   -0.6240 o         1 MOL     -0.590870
      4 H1         -7.1980    8.3250    2.1820 hc        1 MOL      0.064110
      5 H2         -5.8970    7.1630    1.8300 hc        1 MOL      0.064110
      6 H3         -6.1810    8.5400    0.7370 hc        1 MOL      0.064110
      7 N1         -8.3300    5.9840    1.1480 n         1 MOL     -0.585951
      8 C3         -9.2920    5.0120    0.6020 c3        1 MOL      0.280763
      9 C4         -8.6690    3.8190   -0.1550 c         1 MOL      0.481768
     10 O2         -9.4630    3.0560   -0.7980 o         1 MOL     -0.522808
     11 C5        -10.4490    4.5840    1.5360 c3        1 MOL     -0.325696
     12 C6        -11.7460    4.2570    0.8110 c         1 MOL      0.733138
     13 O3        -12.5960    3.4810    1.2890 o         1 MOL     -0.719748
     14 O4        -12.0410    4.9650   -0.2070 o         1 MOL     -0.719748
     15 H4         -8.3480    6.0570    2.1570 hn        1 MOL      0.258801
     16 H5         -9.7400    5.6380   -0.1670 h1        1 MOL      0.036182
     17 H6        -10.6620    5.3730    2.2540 hc        1 MOL      0.050228
     18 H7        -10.0570    3.8610    2.2570 hc        1 MOL      0.050228
     19 N2         -7.3660    3.5270   -0.1350 n         1 MOL     -0.556613
     20 C7         -6.6320    2.4810   -0.8770 c3        1 MOL      0.409482
     21 C8         -5.2740    2.1320   -0.1160 c         1 MOL      0.302869
     22 O5         -4.7150    2.9240    0.6500 o         1 MOL     -0.481842
     23 C9         -6.2640    3.0530   -2.2890 c3        1 MOL     -0.192034
     24 H8         -6.7340    4.1480    0.3440 hn        1 MOL      0.256581
     25 H9         -7.2660    1.6230   -1.1040 h1        1 MOL     -0.037460
     26 H10        -7.1440    3.4300   -2.8100 hc        1 MOL      0.062473
     27 H11        -5.5590    3.8780   -2.2250 hc        1 MOL      0.062473
     28 H12        -5.8070    2.2480   -2.8740 hc        1 MOL      0.062473
     29 N3         -4.6620    0.9500   -0.4020 n         1 MOL     -0.205254
     30 C10        -5.1420   -0.1200   -1.2740 c3        1 MOL     -0.290291
     31 C11        -5.2880   -1.4270   -0.4660 c         1 MOL      0.322408
     32 O6         -4.4400   -1.7860    0.3770 o         1 MOL     -0.398629
     33 C12        -4.2780   -0.2800   -2.5550 c3        1 MOL     -0.011760
     34 C13        -2.8790   -0.5980   -2.3160 c         1 MOL      0.586452
     35 O7         -2.0560    0.2340   -1.9390 o         1 MOL     -0.678862
     36 O8         -2.5800   -1.7990   -2.4540 o         1 MOL     -0.678862
     37 H13        -3.7570    0.7980    0.0270 hn        1 MOL      0.257952
     38 H14        -6.0850    0.1220   -1.7580 h1        1 MOL      0.172894
     39 H15        -4.3750    0.6770   -3.0690 hc        1 MOL      0.016334
     40 H16        -4.7040   -1.0120   -3.2510 hc        1 MOL      0.016334
     41 N4         -6.3990   -2.1600   -0.7380 n         1 MOL     -0.218881
     42 C14        -6.6860   -3.5090   -0.2840 c3        1 MOL      0.084296
     43 C15        -6.5470   -4.6520   -1.2360 c         1 MOL      0.425561
     44 O9         -7.5690   -4.9060   -1.9610 o         1 MOL     -0.550989
     45 H17        -7.1130   -1.6570   -1.2330 hn        1 MOL      0.266302
     46 H18        -7.7130   -3.4210    0.0610 h1        1 MOL      0.024259
     47 H19        -5.9820   -3.6350    0.5430 h1        1 MOL      0.024259
     48 N5         -5.3740   -5.1790   -1.5710 n         1 MOL     -0.393386
     49 C16        -4.0910   -4.8700   -0.9700 c3        1 MOL     -0.025635
     50 C17        -3.9910   -5.1490    0.5500 c         1 MOL      0.557677
     51 O10        -4.2280   -6.2610    0.9170 o         1 MOL     -0.582131
     52 C18        -2.9270   -5.5620   -1.7580 c3        1 MOL     -0.028258
     53 C19        -1.6120   -4.8750   -1.6090 c         1 MOL      0.497766
     54 N6         -0.6610   -5.0030   -2.5200 n         1 MOL     -0.773193
     55 O11        -1.3820   -4.0560   -0.7620 o         1 MOL     -0.545602
     56 H20        -5.3930   -5.9620   -2.2020 hn        1 MOL      0.299172
     57 H21        -4.0620   -3.7750   -1.0050 h1        1 MOL      0.093577
     58 H22        -3.2140   -5.5740   -2.8070 hc        1 MOL      0.054657
     59 H23        -2.9700   -6.6330   -1.5910 hc        1 MOL      0.054657
     60 H24        -0.7870   -5.6870   -3.2450 hn        1 MOL      0.361674
     61 H25         0.2470   -4.5900   -2.3150 hn        1 MOL      0.361674
     62 N7         -3.4220   -4.2560    1.3480 n         1 MOL     -0.024497
     63 C20        -2.9940   -4.4600    2.7160 c3        1 MOL     -0.125782
     64 C21        -1.6390   -5.1570    2.9010 c         1 MOL      0.509911
     65 O12        -1.4210   -5.8320    3.9100 o         1 MOL     -0.554661
     66 H26        -3.3210   -3.2950    1.0610 hn        1 MOL      0.022667
     67 H27        -3.8760   -4.9200    3.1720 h1        1 MOL      0.062046
     68 H28        -2.9160   -3.4900    3.2090 h1        1 MOL      0.062046
     69 N8         -0.7090   -4.8340    1.9590 n         1 MOL     -0.238233
     70 C22         0.7760   -4.9430    2.1120 c3        1 MOL     -0.081750
     71 C23         1.6160   -3.7520    1.6750 c         1 MOL      0.477147
     72 O13         1.1100   -3.0140    0.7750 o         1 MOL     -0.567624
     73 C24         1.2920   -6.1780    1.3140 c3        1 MOL      0.508377
     74 C25         0.6900   -7.4500    1.8200 c3        1 MOL     -0.355410
     75 O14         1.1030   -6.0530   -0.0360 oh        1 MOL     -0.672037
     76 H29        -1.0360   -4.3990    1.1060 hn        1 MOL      0.167295
     77 H30         1.0290   -5.1460    3.1600 h1        1 MOL      0.059311
     78 H31         2.3680   -6.2890    1.4610 h1        1 MOL     -0.073772
     79 H32         1.7450   -5.4100   -0.3430 ho        1 MOL      0.525324
     80 H33         1.0660   -8.2820    1.2230 hc        1 MOL      0.076298
     81 H34         1.1380   -7.5680    2.8000 hc        1 MOL      0.076298
     82 H35        -0.3980   -7.4220    1.6920 hc        1 MOL      0.076298
     83 N9          2.7810   -3.5260    2.3470 n         1 MOL     -0.529565
     84 C26         3.6430   -2.3040    2.1650 c3        1 MOL      0.398159
     85 C27         4.5250   -2.6120    1.0240 c         1 MOL      0.269686
     86 O15         5.5470   -3.2720    1.1660 o         1 MOL     -0.560172
     87 C28         4.4430   -1.9720    3.4750 c3        1 MOL      0.122212
     88 C29         5.4050   -0.7500    3.2690 c3        1 MOL     -0.092234
     89 C30         3.4630   -1.5870    4.5320 c3        1 MOL     -0.361522
     90 C31         4.9340    0.5350    2.6380 c3        1 MOL     -0.227344
     91 H36         3.0420   -4.1130    3.1260 hn        1 MOL      0.288305
     92 H37         3.0400   -1.4330    1.8880 h1        1 MOL     -0.026489
     93 H38         5.0870   -2.8070    3.7430 hc        1 MOL     -0.011165
     94 H39         6.2490   -1.1100    2.6870 hc        1 MOL      0.026844
     95 H40         5.7710   -0.4350    4.2540 hc        1 MOL      0.026844
     96 H41         3.9590   -1.3310    5.4750 hc        1 MOL      0.084522
     97 H42         2.9750   -0.6600    4.2260 hc        1 MOL      0.084522
     98 H43         2.7370   -2.3570    4.7650 hc        1 MOL      0.084522
     99 H44         4.1270    0.9750    3.2090 hc        1 MOL      0.074694
    100 H45         5.7940    1.1960    2.7030 hc        1 MOL      0.074694
    101 H46         4.6820    0.4180    1.5720 hc        1 MOL      0.074694
    102 N10         4.1210   -2.0770   -0.1570 n         1 MOL      0.081314
    103 C32         4.7930   -2.3780   -1.4190 c3        1 MOL      0.117037
    104 C33         5.7140   -1.2700   -1.9080 c         1 MOL      0.531544
    105 O16         6.3980   -1.4560   -2.9400 o         1 MOL     -0.562206
    106 C34         3.8070   -2.8440   -2.5130 c3        1 MOL     -0.354023
    107 C35         2.6160   -3.6320   -1.9670 c         1 MOL      0.918183
    108 O17         2.7940   -4.6720   -1.3420 o         1 MOL     -0.783792
    109 O18         1.4690   -3.1690   -2.1340 o         1 MOL     -0.783792
    110 H47         3.2480   -1.5740   -0.2080 hn        1 MOL     -0.027584
    111 H48         5.4240   -3.2540   -1.2750 h1        1 MOL      0.064059
    112 H49         4.4250   -3.5550   -3.0530 hc        1 MOL      0.066846
    113 H50         3.5500   -2.1170   -3.2850 hc        1 MOL      0.066846
    114 N11         5.8240   -0.2100   -1.1470 n         1 MOL     -0.596422
    115 C36         6.8300    0.8090   -1.2150 c3        1 MOL      0.263941
    116 C37         6.2700    2.2060   -0.8140 c         1 MOL      0.341236
    117 O19         5.9730    2.3730    0.3800 o         1 MOL     -0.497085
    118 C38         8.0000    0.4890   -0.3280 c3        1 MOL     -0.286440
    119 C39         9.0170    1.6190   -0.1520 ca        1 MOL      0.126336
    120 C40         9.1770    2.1540    1.1140 ca        1 MOL     -0.203791
    121 C41         9.8070    2.1260   -1.2580 ca        1 MOL     -0.203791
    122 C42        10.1220    3.1260    1.3850 ca        1 MOL     -0.072638
    123 C43        10.7300    3.1810   -0.9920 ca        1 MOL     -0.072638
    124 C44        10.9040    3.6600    0.3310 ca        1 MOL     -0.174798
    125 H51         5.0420   -0.0130   -0.5330 hn        1 MOL      0.335336
    126 H52         7.2100    0.9120   -2.2240 h1        1 MOL      0.036598
    127 H53         8.5960   -0.3150   -0.7420 hc        1 MOL      0.122176
    128 H54         7.7120    0.1260    0.6640 hc        1 MOL      0.122176
    129 H55         8.5260    1.8930    1.9410 ha        1 MOL      0.132487
    130 H56         9.7070    1.6810   -2.2410 ha        1 MOL      0.132487
    131 H57        10.2580    3.4360    2.4170 ha        1 MOL      0.104611
    132 H58        11.2530    3.6310   -1.8180 ha        1 MOL      0.104611
    133 H59        11.6780    4.3660    0.5700 ha        1 MOL      0.112974
    134 N12         6.2590    3.2660   -1.6920 n         1 MOL     -0.018505
    135 C45         6.2350    4.6480   -1.2010 c3        1 MOL      0.054807
    136 C46         4.8430    5.0890   -0.5190 c         1 MOL      0.350200
    137 O20         4.4860    6.2930   -0.5380 o         1 MOL     -0.529720
    138 C47         6.6090    5.5130   -2.4470 c3        1 MOL     -0.130894
    139 C48         7.1810    4.5190   -3.5000 c3        1 MOL      0.060955
    140 C49         6.4690    3.1770   -3.1550 c3        1 MOL     -0.069807
    141 H60         7.0290    4.6500   -0.4550 h1        1 MOL      0.065850
    142 H61         5.7010    6.0130   -2.7970 hc        1 MOL      0.063633
    143 H62         7.3100    6.2810   -2.1110 hc        1 MOL      0.063633
    144 H63         6.9950    4.9190   -4.5040 hc        1 MOL     -0.003899
    145 H64         8.2450    4.4050   -3.2440 hc        1 MOL     -0.003899
    146 H65         5.4380    3.1250   -3.5060 h1        1 MOL      0.059069
    147 H66         7.0400    2.3230   -3.5200 h1        1 MOL      0.059069
    148 N13         3.9490    4.1870   -0.0460 n         1 MOL     -0.031090
    149 C50         2.6270    4.5150    0.5080 c3        1 MOL     -0.333214
    150 C51         2.5470    5.0130    1.9960 c         1 MOL      0.620282
    151 O21         1.5610    5.5040    2.4700 o         1 MOL     -0.528286
    152 C52         1.8520    3.1800    0.3110 c3        1 MOL     -0.034055
    153 C53         2.3200    1.8710    0.8590 c3        1 MOL     -0.021453
    154 C54         1.4210    0.7130    0.3470 c         1 MOL      0.701062
    155 O22         0.1920    0.8100    0.2920 o         1 MOL     -0.698745
    156 O23         1.9130   -0.3080   -0.2290 o         1 MOL     -0.698745
    157 H67         4.2030    3.2150   -0.1740 hn        1 MOL      0.034804
    158 H68         2.0250    5.1650   -0.1350 h1        1 MOL      0.174579
    159 H69         1.7460    3.0250   -0.7600 hc        1 MOL      0.061218
    160 H70         0.8990    3.4360    0.7720 hc        1 MOL      0.061218
    161 H71         2.3210    1.8140    1.9540 hc        1 MOL     -0.002478
    162 H72         3.3200    1.7250    0.4650 hc        1 MOL     -0.002478
    163 N14         3.6640    4.9070    2.6870 n         1 MOL     -0.310065
    164 C55         3.8680    5.5700    4.0330 c3        1 MOL     -0.103655
    165 H73         2.9350    6.0340    4.3550 h1        1 MOL      0.073382
    166 H74         4.1720    4.8220    4.7640 h1        1 MOL      0.073382
    167 H75         4.6430    6.3330    3.9490 h1        1 MOL      0.073382
    168 H76         4.4800    4.5600    2.2130 hn        1 MOL      0.218634
    169 Ca1        -0.3090   -1.5960   -1.0280 Ca        1 MOL      1.733874
    170 O24        -1.9470   -1.2900    1.1430 oh        1 MOL     -0.779079
    171 H77        -1.8400   -0.4020    1.4850 ho        1 MOL      0.388051
    172 H78        -2.8700   -1.3630    0.9390 ho        1 MOL      0.388051
    173 O25         0.4270   -0.4480   -3.2120 oh        1 MOL     -0.779079
    174 H79         0.4770   -1.1610   -3.8410 ho        1 MOL      0.388051
    175 H80         0.6250    0.3460   -3.7180 ho        1 MOL      0.388051
@<TRIPOS>BOND
     1    1    2 1   
     2    1    4 1   
     3    1    5 1   
     4    1    6 1   
     5    2    3 2   
     6    2    7 1   
     7    7    8 1   
     8    7   15 1   
     9    8    9 1   
    10    8   11 1   
    11    8   16 1   
    12    9   10 2   
    13    9   19 1   
    14   11   12 1   
    15   11   17 1   
    16   11   18 1   
    17   12   13 1   
    18   12   14 1   
    19   19   20 1   
    20   19   24 1   
    21   20   21 1   
    22   20   23 1   
    23   20   25 1   
    24   21   22 2   
    25   21   29 1   
    26   23   26 1   
    27   23   27 1   
    28   23   28 1   
    29   29   30 1   
    30   29   37 1   
    31   30   31 1   
    32   30   33 1   
    33   30   38 1   
    34   31   32 2   
    35   31   41 1   
    36   33   34 1   
    37   33   39 1   
    38   33   40 1   
    39   34   35 1   
    40   34   36 1   
    41   41   42 1   
    42   41   45 1   
    43   42   43 1   
    44   42   46 1   
    45   42   47 1   
    46   43   44 2   
    47   43   48 1   
    48   48   49 1   
    49   48   56 1   
    50   49   50 1   
    51   49   52 1   
    52   49   57 1   
    53   50   51 2   
    54   50   62 1   
    55   52   53 1   
    56   52   58 1   
    57   52   59 1   
    58   53   54 1   
    59   53   55 2   
    60   54   60 1   
    61   54   61 1   
    62   62   63 1   
    63   62   66 1   
    64   63   64 1   
    65   63   67 1   
    66   63   68 1   
    67   64   65 2   
    68   64   69 1   
    69   69   70 1   
    70   69   76 1   
    71   70   71 1   
    72   70   73 1   
    73   70   77 1   
    74   71   72 2   
    75   71   83 1   
    76   73   74 1   
    77   73   75 1   
    78   73   78 1   
    79   74   80 1   
    80   74   81 1   
    81   74   82 1   
    82   75   79 1   
    83   83   84 1   
    84   83   91 1   
    85   84   85 1   
    86   84   87 1   
    87   84   92 1   
    88   85   86 2   
    89   85  102 1   
    90   87   88 1   
    91   87   89 1   
    92   87   93 1   
    93   88   90 1   
    94   88   94 1   
    95   88   95 1   
    96   89   96 1   
    97   89   97 1   
    98   89   98 1   
    99   90   99 1   
   100   90  100 1   
   101   90  101 1   
   102  102  103 1   
   103  102  110 1   
   104  103  104 1   
   105  103  106 1   
   106  103  111 1   
   107  104  105 2   
   108  104  114 1   
   109  106  107 1   
   110  106  112 1   
   111  106  113 1   
   112  107  108 1   
   113  107  109 1   
   114  114  115 1   
   115  114  125 1   
   116  115  116 1   
   117  115  118 1   
   118  115  126 1   
   119  116  117 2   
   120  116  134 1   
   121  118  119 1   
   122  118  127 1   
   123  118  128 1   
   124  119  120 ar  
   125  119  121 ar  
   126  120  122 ar  
   127  120  129 1   
   128  121  123 ar  
   129  121  130 1   
   130  122  124 ar  
   131  122  131 1   
   132  123  124 ar  
   133  123  132 1   
   134  124  133 1   
   135  134  135 1   
   136  134  140 1   
   137  135  136 1   
   138  135  138 1   
   139  135  141 1   
   140  136  137 2   
   141  136  148 1   
   142  138  139 1   
   143  138  142 1   
   144  138  143 1   
   145  139  140 1   
   146  139  144 1   
   147  139  145 1   
   148  140  146 1   
   149  140  147 1   
   150  148  149 1   
   151  148  157 1   
   152  149  150 1   
   153  149  152 1   
   154  149  158 1   
   155  150  151 2   
   156  150  163 1   
   157  152  153 1   
   158  152  159 1   
   159  152  160 1   
   160  153  154 1   
   161  153  161 1   
   162  153  162 1   
   163  154  155 1   
   164  154  156 1   
   165  163  164 1   
   166  163  168 1   
   167  164  165 1   
   168  164  166 1   
   169  164  167 1   
   170  170  171 1   
   171  170  172 1   
   172  173  174 1   
   173  173  175 1   
@<TRIPOS>SUBSTRUCTURE
     1 MOL         1 TEMP              0 ****  ****    0 ROOT
