@<TRIPOS>MOLECULE
MOL
  185   180     1     0     0
SMALL
resp


@<TRIPOS>ATOM
      1 C1         -2.6880   -2.8560    5.2770 c3        1 MOL     -0.302098
      2 C2         -2.1570   -2.6580    3.8550 c         1 MOL      0.732313
      3 O1         -2.8570   -2.6020    2.8060 o         1 MOL     -0.607960
      4 H1         -1.9310   -3.3590    5.8800 hc        1 MOL      0.082831
      5 H2         -2.9180   -1.8860    5.7180 hc        1 MOL      0.082831
      6 H3         -3.5910   -3.4660    5.2460 hc        1 MOL      0.082831
      7 N1         -0.8200   -2.6700    3.8260 n         1 MOL     -0.602498
      8 C3         -0.0700   -2.5030    2.5740 c3        1 MOL      0.184025
      9 C4         -0.0360   -3.7510    1.6630 c         1 MOL      0.508317
     10 O2          0.3380   -4.7880    2.2080 o         1 MOL     -0.528122
     11 C5          1.3130   -2.0290    2.9800 c3        1 MOL      0.085523
     12 C6          2.0520   -1.4260    1.8220 c         1 MOL      0.246026
     13 O3          2.9400   -0.6050    2.0500 o         1 MOL     -0.619034
     14 O4          1.8310   -1.7620    0.6420 o         1 MOL     -0.619034
     15 H4         -0.3030   -2.6850    4.6910 hn        1 MOL      0.316653
     16 H5         -0.5600   -1.6940    2.0470 h1        1 MOL     -0.078553
     17 H6          1.8540   -2.8590    3.4480 hc        1 MOL      0.016629
     18 H7          1.2730   -1.2510    3.7480 hc        1 MOL      0.016629
     19 N2         -0.3450   -3.5590    0.4270 n         1 MOL     -0.185050
     20 C7         -0.3240   -4.6240   -0.5980 c3        1 MOL     -0.233952
     21 C8          1.0650   -5.1400   -0.8790 c         1 MOL      0.591408
     22 O5          1.2000   -6.3170   -1.1810 o         1 MOL     -0.580815
     23 C9         -0.9670   -4.0710   -1.9110 c3        1 MOL     -0.066514
     24 C10        -1.0890   -5.1160   -3.0530 c3        1 MOL     -0.136088
     25 C11        -1.7700   -4.5790   -4.2640 c3        1 MOL     -0.007705
     26 C12        -0.7960   -3.7040   -5.1220 c3        1 MOL      0.124424
     27 N3         -1.2830   -3.5410   -6.4820 n4        1 MOL     -0.292753
     28 H8         -0.9250   -2.7840    0.1540 hn        1 MOL      0.197075
     29 H9         -0.8560   -5.4970   -0.2060 h1        1 MOL      0.140233
     30 H10        -0.5220   -3.1380   -2.2520 hc        1 MOL      0.064406
     31 H11        -1.9800   -3.7660   -1.6550 hc        1 MOL      0.064406
     32 H12        -1.7420   -5.9120   -2.6970 hc        1 MOL      0.096685
     33 H13        -0.1150   -5.5270   -3.3140 hc        1 MOL      0.096685
     34 H14        -2.6990   -4.0590   -4.1020 hc        1 MOL      0.027225
     35 H15        -2.0490   -5.4640   -4.8390 hc        1 MOL      0.027225
     36 H16         0.2120   -4.1150   -5.0270 hx        1 MOL      0.029270
     37 H17        -0.6750   -2.7180   -4.6710 hx        1 MOL      0.029270
     38 H18        -1.3850   -4.4430   -6.9370 hn        1 MOL      0.262655
     39 H19        -2.1820   -3.1040   -6.5570 hn        1 MOL      0.262655
     40 H20        -0.6280   -3.0230   -7.0590 hn        1 MOL      0.262655
     41 N4          2.0910   -4.3200   -0.8250 n         1 MOL     -0.276380
     42 C13         3.5560   -4.6870   -1.1170 c3        1 MOL     -0.112403
     43 C14         4.5680   -4.3420    0.0190 c         1 MOL      0.406140
     44 O6          5.7830   -4.6960   -0.0660 o         1 MOL     -0.557453
     45 C15         3.8810   -4.1030   -2.5130 c3        1 MOL     -0.185810
     46 C16         3.8340   -2.6060   -2.6550 c         1 MOL      0.732393
     47 O7          3.7450   -1.9360   -1.6350 o         1 MOL     -0.724793
     48 O8          3.8970   -2.1270   -3.8160 o         1 MOL     -0.724793
     49 H21         1.9590   -3.3890   -0.4590 hn        1 MOL      0.124864
     50 H22         3.5840   -5.7740   -1.2430 h1        1 MOL      0.161614
     51 H23         3.2170   -4.6160   -3.2120 hc        1 MOL      0.070778
     52 H24         4.8360   -4.5010   -2.8510 hc        1 MOL      0.070778
     53 N5          4.0870   -3.7410    1.0810 n         1 MOL     -0.018101
     54 C17         4.8470   -3.4240    2.2540 c3        1 MOL     -0.398164
     55 C18         5.8130   -2.2510    1.9400 c         1 MOL      0.580617
     56 O9          6.7200   -2.0630    2.7670 o         1 MOL     -0.546896
     57 H25         3.1640   -3.3500    0.9960 hn        1 MOL      0.125610
     58 H26         5.4340   -4.2930    2.5390 h1        1 MOL      0.175971
     59 H27         4.0620   -3.0520    2.9150 h1        1 MOL      0.175971
     60 N6          5.7440   -1.5490    0.7650 n         1 MOL     -0.153145
     61 C19         6.6190   -0.5020    0.3680 c3        1 MOL     -0.082011
     62 C20         5.8910    0.7130   -0.2100 c         1 MOL      0.669644
     63 O10         4.6930    0.5920   -0.4570 o         1 MOL     -0.598283
     64 C21         7.5730   -1.1780   -0.6190 c3        1 MOL     -0.281898
     65 C22         8.6590   -2.1600   -0.0520 c         1 MOL      0.780254
     66 N7          8.4650   -3.4540   -0.0010 n         1 MOL     -0.893051
     67 O11         9.7530   -1.7470    0.2250 o         1 MOL     -0.599699
     68 H28         4.9360   -1.7430    0.1920 hn        1 MOL      0.274011
     69 H29         7.1190   -0.1660    1.2740 h1        1 MOL      0.056803
     70 H30         8.1950   -0.4040   -1.0800 hc        1 MOL      0.058536
     71 H31         7.0850   -1.7770   -1.3800 hc        1 MOL      0.058536
     72 H32         7.5750   -3.8250   -0.2860 hn        1 MOL      0.398441
     73 H33         9.1490   -4.0810    0.4090 hn        1 MOL      0.398441
     74 N8          6.5880    1.8330   -0.3630 n         1 MOL     -0.383037
     75 C23         6.0180    3.0710   -0.8430 c3        1 MOL     -0.224689
     76 C24         4.8880    3.5260    0.1510 c         1 MOL      0.558487
     77 O12         5.0130    3.5020    1.3630 o         1 MOL     -0.517256
     78 H34         7.5560    1.8740   -0.0530 hn        1 MOL      0.331171
     79 H35         5.5390    2.9650   -1.8240 h1        1 MOL      0.128081
     80 H36         6.7390    3.8790   -0.9560 h1        1 MOL      0.128081
     81 N9          3.7550    3.8450   -0.4510 n         1 MOL     -0.516247
     82 C25         2.4940    4.3420    0.2260 c3        1 MOL      0.545102
     83 C26         1.7070    3.2210    0.8860 c         1 MOL      0.314373
     84 O13         1.8530    2.0210    0.5680 o         1 MOL     -0.419777
     85 C27         1.7460    5.1530   -0.7360 c3        1 MOL     -0.164712
     86 C28         2.5490    6.0390   -1.6690 ca        1 MOL      0.017828
     87 C29         3.4360    6.9960   -1.1420 ca        1 MOL     -0.086132
     88 C30         2.3500    5.9770   -3.1060 ca        1 MOL     -0.086132
     89 C31         4.1990    7.8010   -2.0000 ca        1 MOL     -0.338352
     90 C32         3.0160    6.9160   -3.9170 ca        1 MOL     -0.338352
     91 C33         3.9790    7.8040   -3.3810 ca        1 MOL      0.392147
     92 O14         4.7120    8.6390   -4.1450 oh        1 MOL     -0.461736
     93 H37         3.6520    3.6990   -1.4480 hn        1 MOL      0.202903
     94 H38         2.9110    4.9230    1.0550 h1        1 MOL     -0.012446
     95 H39         1.1000    5.8460   -0.1800 hc        1 MOL      0.024556
     96 H40         1.0530    4.5940   -1.3670 hc        1 MOL      0.024556
     97 H41         3.5830    6.9910   -0.0740 ha        1 MOL      0.106088
     98 H42         1.7920    5.1960   -3.6130 ha        1 MOL      0.106088
     99 H43         4.8990    8.4740   -1.5150 ha        1 MOL      0.174207
    100 H44         2.7690    6.9100   -4.9690 ha        1 MOL      0.174207
    101 H45         4.5680    8.5490   -5.0880 ho        1 MOL      0.359043
    102 N10         0.9440    3.7300    1.8170 n         1 MOL     -0.495860
    103 C34         0.3700    3.0140    2.9490 c3        1 MOL      0.148312
    104 C35        -0.6390    1.8730    2.5560 c         1 MOL      0.326181
    105 O15        -0.3710    0.9830    1.7570 o         1 MOL     -0.276495
    106 C36         1.5130    2.4630    3.9040 c3        1 MOL      0.005428
    107 C37         0.9570    1.8980    5.2140 c3        1 MOL      0.043582
    108 C38         2.5690    3.5750    4.2200 c3        1 MOL     -0.333205
    109 C39         1.8930    0.9860    5.9420 c3        1 MOL      0.007964
    110 H46         0.9880    4.7420    1.8680 hn        1 MOL      0.287514
    111 H47        -0.2450    3.6890    3.5500 h1        1 MOL      0.040774
    112 H48         2.0210    1.6870    3.3240 hc        1 MOL      0.131000
    113 H49         0.0570    1.2910    5.1890 hc        1 MOL     -0.019816
    114 H50         0.7940    2.6700    5.9690 hc        1 MOL     -0.019816
    115 H51         3.2470    3.2130    4.9890 hc        1 MOL      0.095238
    116 H52         3.0750    3.8520    3.3010 hc        1 MOL      0.095238
    117 H53         2.1340    4.4690    4.6600 hc        1 MOL      0.095238
    118 H54         2.9350    1.2920    6.0420 hc        1 MOL      0.009887
    119 H55         1.4950    0.8210    6.9460 hc        1 MOL      0.009887
    120 H56         1.7320    0.0150    5.4830 hc        1 MOL      0.009887
    121 N11        -1.8120    1.8610    3.2060 n         1 MOL     -0.510499
    122 C40        -2.8830    0.8700    3.0100 c3        1 MOL      0.035663
    123 C41        -3.8360    1.0010    1.7590 c         1 MOL      0.475967
    124 O16        -4.9260    0.3950    1.7550 o         1 MOL     -0.522347
    125 C42        -3.7420    0.7510    4.3000 c3        1 MOL      0.299299
    126 O17        -2.9490    0.6550    5.4640 oh        1 MOL     -0.598776
    127 H57        -1.8860    2.4790    4.0010 hn        1 MOL      0.266015
    128 H58        -2.2730   -0.0060    2.7760 h1        1 MOL      0.104197
    129 H59        -4.3350   -0.1630    4.1610 h1        1 MOL      0.025199
    130 H60        -4.5280    1.5130    4.3120 h1        1 MOL      0.025199
    131 H61        -2.7310    1.5610    5.7150 ho        1 MOL      0.379220
    132 N12        -3.4450    1.7410    0.7150 n         1 MOL     -0.470217
    133 C43        -4.2990    1.8780   -0.4950 c3        1 MOL      0.181217
    134 C44        -3.9070    0.9390   -1.6770 c         1 MOL      0.620659
    135 O18        -2.7320    1.0560   -2.1710 o         1 MOL     -0.635822
    136 C45        -4.3610    3.3350   -1.0030 c3        1 MOL     -0.423338
    137 H62        -2.5230    2.1440    0.7380 hn        1 MOL      0.278779
    138 H63        -5.2850    1.6530   -0.0790 h1        1 MOL      0.125940
    139 H64        -5.1680    3.4590   -1.7350 hc        1 MOL      0.118840
    140 H65        -4.6490    4.0170   -0.2060 hc        1 MOL      0.118840
    141 H66        -3.4150    3.6220   -1.4560 hc        1 MOL      0.118840
    142 N13        -4.7250   -0.0290   -2.0730 n         1 MOL     -0.689768
    143 C46        -6.0760   -0.4860   -1.6340 c3        1 MOL      0.309536
    144 C47        -7.2400    0.5180   -1.9610 c         1 MOL      0.612939
    145 O19        -7.2200    1.1390   -3.0040 o         1 MOL     -0.571731
    146 C48        -6.2050   -1.8500   -2.2850 c3        1 MOL     -0.387015
    147 H67        -4.3520   -0.5140   -2.8800 hn        1 MOL      0.345741
    148 H68        -6.0900   -0.4790   -0.5450 h1        1 MOL      0.075361
    149 H69        -5.3060   -2.4570   -2.1870 hc        1 MOL      0.112966
    150 H70        -7.1350   -2.2430   -1.8710 hc        1 MOL      0.112966
    151 H71        -6.3760   -1.6750   -3.3500 hc        1 MOL      0.112966
    152 N14        -8.2360    0.7480   -1.1400 n         1 MOL     -0.530888
    153 C49        -8.4910    0.3640    0.2040 c3        1 MOL     -0.281471
    154 C50        -8.9540    1.5030    1.1140 c         1 MOL      0.633015
    155 O20        -8.5740    1.4990    2.2930 o         1 MOL     -0.539471
    156 C51        -9.3950   -0.9430    0.3700 c3        1 MOL      0.039318
    157 C52       -10.7010   -0.8940   -0.3490 c3        1 MOL     -0.164742
    158 C53       -10.6770   -1.3520   -1.8670 c         1 MOL      0.679973
    159 O21       -11.1000   -2.5360   -2.1150 o         1 MOL     -0.647652
    160 O22       -10.6340   -0.5040   -2.8180 o         1 MOL     -0.647652
    161 H72        -8.8630    1.3940   -1.5930 hn        1 MOL      0.290873
    162 H73        -7.5270    0.1420    0.6420 h1        1 MOL      0.119384
    163 H74        -9.5920   -1.2120    1.4020 hc        1 MOL      0.041563
    164 H75        -8.8090   -1.7270   -0.1150 hc        1 MOL      0.041563
    165 H76       -11.1600    0.0870   -0.3240 hc        1 MOL      0.032659
    166 H77       -11.2860   -1.6150    0.2370 hc        1 MOL      0.032659
    167 N15        -9.8020    2.4480    0.6380 n         1 MOL     -0.364309
    168 C54       -10.1500    3.6470    1.4540 c3        1 MOL     -0.271067
    169 H78       -10.9220    4.2220    0.9420 h1        1 MOL      0.124087
    170 H79       -10.5220    3.3290    2.4280 h1        1 MOL      0.124087
    171 H80        -9.2630    4.2670    1.5860 h1        1 MOL      0.124087
    172 H81       -10.1540    2.2930   -0.2970 hn        1 MOL      0.327129
    173 Ca1         2.1070    0.0730   -0.9700 Ca        1 MOL      1.743668
    174 O23         1.1210   -0.7450   -3.3440 oh        1 MOL     -0.826184
    175 O24        -0.6400   -0.2240   -0.5260 oh        1 MOL     -0.826184
    176 H82         0.2400   -0.5400   -3.6510 ho        1 MOL      0.401859
    177 H83        -1.4900   -0.6690   -0.5600 ho        1 MOL      0.401859
    178 H84         1.6290   -0.8570   -4.1550 ho        1 MOL      0.401859
    179 H85        -0.7440    0.4350    0.1510 ho        1 MOL      0.401859
    180 O25         0.4790    2.1360   -2.0930 oh        1 MOL     -0.826184
    181 H86        -0.4650    2.3030   -1.9740 ho        1 MOL      0.401859
    182 H87         0.6110    2.1950   -3.0380 ho        1 MOL      0.401859
    183 O26         3.2380    1.6860   -2.9150 oh        1 MOL     -0.826184
    184 H88         4.1400    1.6800   -3.2530 ho        1 MOL      0.401859
    185 H89         2.6930    1.7500   -3.6950 ho        1 MOL      0.401859
@<TRIPOS>BOND
     1    1    2 1   
     2    1    4 1   
     3    1    5 1   
     4    1    6 1   
     5    2    3 2   
     6    2    7 1   
     7    7    8 1   
     8    7   15 1   
     9    8    9 1   
    10    8   11 1   
    11    8   16 1   
    12    9   10 2   
    13    9   19 1   
    14   11   12 1   
    15   11   17 1   
    16   11   18 1   
    17   12   13 1   
    18   12   14 1   
    19   19   20 1   
    20   19   28 1   
    21   20   21 1   
    22   20   23 1   
    23   20   29 1   
    24   21   22 2   
    25   21   41 1   
    26   23   24 1   
    27   23   30 1   
    28   23   31 1   
    29   24   25 1   
    30   24   32 1   
    31   24   33 1   
    32   25   26 1   
    33   25   34 1   
    34   25   35 1   
    35   26   27 1   
    36   26   36 1   
    37   26   37 1   
    38   27   38 1   
    39   27   39 1   
    40   27   40 1   
    41   41   42 1   
    42   41   49 1   
    43   42   43 1   
    44   42   45 1   
    45   42   50 1   
    46   43   44 2   
    47   43   53 1   
    48   45   46 1   
    49   45   51 1   
    50   45   52 1   
    51   46   47 1   
    52   46   48 1   
    53   53   54 1   
    54   53   57 1   
    55   54   55 1   
    56   54   58 1   
    57   54   59 1   
    58   55   56 2   
    59   55   60 1   
    60   60   61 1   
    61   60   68 1   
    62   61   62 1   
    63   61   64 1   
    64   61   69 1   
    65   62   63 2   
    66   62   74 1   
    67   64   65 1   
    68   64   70 1   
    69   64   71 1   
    70   65   66 1   
    71   65   67 2   
    72   66   72 1   
    73   66   73 1   
    74   74   75 1   
    75   74   78 1   
    76   75   76 1   
    77   75   79 1   
    78   75   80 1   
    79   76   77 2   
    80   76   81 1   
    81   81   82 1   
    82   81   93 1   
    83   82   83 1   
    84   82   85 1   
    85   82   94 1   
    86   83   84 2   
    87   83  102 1   
    88   85   86 1   
    89   85   95 1   
    90   85   96 1   
    91   86   87 ar  
    92   86   88 ar  
    93   87   89 ar  
    94   87   97 1   
    95   88   90 ar  
    96   88   98 1   
    97   89   91 ar  
    98   89   99 1   
    99   90   91 ar  
   100   90  100 1   
   101   91   92 1   
   102   92  101 1   
   103  102  103 1   
   104  102  110 1   
   105  103  104 1   
   106  103  106 1   
   107  103  111 1   
   108  104  105 2   
   109  104  121 1   
   110  106  107 1   
   111  106  108 1   
   112  106  112 1   
   113  107  109 1   
   114  107  113 1   
   115  107  114 1   
   116  108  115 1   
   117  108  116 1   
   118  108  117 1   
   119  109  118 1   
   120  109  119 1   
   121  109  120 1   
   122  121  122 1   
   123  121  127 1   
   124  122  123 1   
   125  122  125 1   
   126  122  128 1   
   127  123  124 2   
   128  123  132 1   
   129  125  126 1   
   130  125  129 1   
   131  125  130 1   
   132  126  131 1   
   133  132  133 1   
   134  132  137 1   
   135  133  134 1   
   136  133  136 1   
   137  133  138 1   
   138  134  135 2   
   139  134  142 1   
   140  136  139 1   
   141  136  140 1   
   142  136  141 1   
   143  142  143 1   
   144  142  147 1   
   145  143  144 1   
   146  143  146 1   
   147  143  148 1   
   148  144  145 2   
   149  144  152 1   
   150  146  149 1   
   151  146  150 1   
   152  146  151 1   
   153  152  153 1   
   154  152  161 1   
   155  153  154 1   
   156  153  156 1   
   157  153  162 1   
   158  154  155 2   
   159  154  167 1   
   160  156  157 1   
   161  156  163 1   
   162  156  164 1   
   163  157  158 1   
   164  157  165 1   
   165  157  166 1   
   166  158  159 1   
   167  158  160 1   
   168  167  168 1   
   169  167  172 1   
   170  168  169 1   
   171  168  170 1   
   172  168  171 1   
   173  174  176 1   
   174  174  178 1   
   175  175  177 1   
   176  175  179 1   
   177  180  181 1   
   178  180  182 1   
   179  183  184 1   
   180  183  185 1   
@<TRIPOS>SUBSTRUCTURE
     1 MOL         1 TEMP              0 ****  ****    0 ROOT
