@<TRIPOS>MOLECULE
MOL
  192   187     1     0     0
SMALL
resp


@<TRIPOS>ATOM
      1 C1         -6.5180   -2.8410    4.6900 c3        1 MOL     -0.256279
      2 C2         -5.8180   -2.1750    3.5130 c         1 MOL      0.811270
      3 O1         -5.4060   -2.8650    2.6010 o         1 MOL     -0.618200
      4 H1         -7.0100   -2.0820    5.2970 hc        1 MOL      0.056407
      5 H2         -7.2610   -3.5470    4.3200 hc        1 MOL      0.056407
      6 H3         -5.7840   -3.3710    5.2980 hc        1 MOL      0.056407
      7 N1         -5.6870   -0.8620    3.6490 n         1 MOL     -0.565573
      8 C3         -5.1870   -0.0120    2.5750 c3        1 MOL      0.456258
      9 C4         -3.7580   -0.1390    2.2370 c         1 MOL     -0.237075
     10 O2         -3.4040    0.4310    1.1790 o         1 MOL      0.129518
     11 C5         -5.6120    1.4520    2.9380 c3        1 MOL     -0.250868
     12 C6         -7.1470    1.4500    2.7900 c         1 MOL      0.669373
     13 O3         -7.8230    1.2180    3.8410 o         1 MOL     -0.693513
     14 O4         -7.6370    1.6750    1.6540 o         1 MOL     -0.693513
     15 H4         -6.1100   -0.4550    4.4740 hn        1 MOL      0.272640
     16 H5         -5.6970   -0.2800    1.6550 h1        1 MOL     -0.001546
     17 H6         -5.1600    2.2100    2.3010 hc        1 MOL      0.024113
     18 H7         -5.2240    1.6880    3.9260 hc        1 MOL      0.024113
     19 N2         -2.9660   -0.8790    3.0710 n         1 MOL     -0.081368
     20 C7         -1.4640   -0.8990    3.1330 c3        1 MOL      0.029883
     21 C8         -0.9470   -2.1780    2.4210 c         1 MOL      0.361018
     22 O5         -1.4890   -3.2400    2.7190 o         1 MOL     -0.477202
     23 C9         -0.9850   -0.8860    4.5670 c3        1 MOL     -0.343552
     24 C10        -1.4280    0.4230    5.3160 c3        1 MOL      0.003405
     25 C11        -1.0290    1.8200    4.6950 c3        1 MOL      0.010959
     26 C12        -1.2460    2.8130    5.8390 c3        1 MOL     -0.064823
     27 N3         -0.9570    4.1210    5.2040 n4        1 MOL     -0.276263
     28 H8         -3.4820   -1.3740    3.7740 hn        1 MOL      0.205135
     29 H9         -0.9980   -0.0620    2.6130 h1        1 MOL     -0.001531
     30 H10         0.1100   -0.9280    4.5910 hc        1 MOL      0.145385
     31 H11        -1.4960   -1.6450    5.1610 hc        1 MOL      0.145385
     32 H12        -1.1750    0.3420    6.3710 hc        1 MOL      0.026385
     33 H13        -2.5100    0.4410    5.3720 hc        1 MOL      0.026385
     34 H14        -1.6830    2.1130    3.8700 hc        1 MOL      0.085711
     35 H15         0.0170    1.7920    4.3850 hc        1 MOL      0.085711
     36 H16        -0.5020    2.6150    6.6100 hx        1 MOL      0.090502
     37 H17        -2.2350    2.6440    6.2550 hx        1 MOL      0.090502
     38 H18        -1.2810    4.9330    5.7010 hn        1 MOL      0.300755
     39 H19         0.0500    4.2280    5.1500 hn        1 MOL      0.300755
     40 H20        -1.2600    4.1240    4.2330 hn        1 MOL      0.300755
     41 N4          0.0220   -2.1890    1.4660 n         1 MOL     -0.127162
     42 C13         0.8200   -1.0640    0.8400 c3        1 MOL     -0.226680
     43 C14         1.4010    0.0380    1.7670 c         1 MOL      0.593593
     44 O6          0.8070    1.0640    2.1420 o         1 MOL     -0.588953
     45 C15         0.0170   -0.5220   -0.3600 c3        1 MOL     -0.469797
     46 C16        -0.1400   -1.5360   -1.4650 c         1 MOL      0.756931
     47 O7          0.5330   -2.6060   -1.3960 o         1 MOL     -0.765046
     48 O8         -0.9360   -1.3320   -2.4060 o         1 MOL     -0.765046
     49 H21         0.0450   -3.0900    1.0160 hn        1 MOL      0.139704
     50 H22         1.7190   -1.3880    0.3240 h1        1 MOL      0.074892
     51 H23         0.6630    0.2270   -0.8200 hc        1 MOL      0.229330
     52 H24        -1.0170   -0.2740   -0.1400 hc        1 MOL      0.229330
     53 N5          2.5630   -0.1820    2.3630 n         1 MOL     -0.288730
     54 C17         3.4530   -1.2950    2.1600 c3        1 MOL     -0.031687
     55 C18         4.4700   -1.4150    3.3280 c         1 MOL      0.530786
     56 O9          4.5300   -0.6620    4.2820 o         1 MOL     -0.524602
     57 H25         2.8120    0.4630    3.1110 hn        1 MOL      0.236680
     58 H26         3.9030   -1.2030    1.1760 h1        1 MOL      0.078481
     59 H27         2.9420   -2.2550    2.0970 h1        1 MOL      0.078481
     60 N6          5.1380   -2.5780    3.4610 n         1 MOL     -0.527146
     61 C19         5.3980   -3.5120    2.3060 c3        1 MOL      0.098353
     62 C20         6.1980   -2.8950    1.1390 c         1 MOL      0.593950
     63 O10         6.9360   -1.9020    1.3180 o         1 MOL     -0.439206
     64 C21         6.0960   -4.7310    2.9340 c3        1 MOL     -0.147656
     65 C22         7.3670   -4.4150    3.8450 c         1 MOL      0.635089
     66 O11         7.7160   -3.2250    4.1560 o         1 MOL     -0.636496
     67 O12         8.0770   -5.4400    4.1450 o         1 MOL     -0.636496
     68 H28         5.8130   -2.5460    4.2230 hn        1 MOL      0.334728
     69 H29         4.4100   -3.7400    1.8960 h1        1 MOL     -0.019338
     70 H30         6.2910   -5.4980    2.1930 hc        1 MOL      0.019876
     71 H31         5.3840   -5.2590    3.5610 hc        1 MOL      0.019876
     72 N7          6.2370   -3.4690   -0.0970 n         1 MOL     -0.451442
     73 C23         7.1460   -2.9670   -1.1340 c3        1 MOL     -0.036766
     74 C24         6.8540   -1.5690   -1.8090 c         1 MOL      0.360126
     75 O13         7.7440   -0.7400   -2.1210 o         1 MOL     -0.499289
     76 H32         5.5710   -4.1580   -0.4160 hn        1 MOL      0.230767
     77 H33         7.2960   -3.7050   -1.9250 h1        1 MOL      0.089566
     78 H34         8.1210   -2.8840   -0.6500 h1        1 MOL      0.089566
     79 N8          5.5300   -1.2850   -1.8100 n         1 MOL     -0.244762
     80 C25         5.0740    0.0090   -2.3360 c3        1 MOL      0.034886
     81 C26         5.2530    1.0010   -1.2260 c         1 MOL      0.737075
     82 O14         4.8240    0.6770   -0.1280 o         1 MOL     -0.602762
     83 C27         3.6650   -0.0030   -2.8400 c3        1 MOL      0.167664
     84 C28         3.4340   -1.0890   -3.9040 c3        1 MOL     -0.503114
     85 O15         3.5210    1.1950   -3.3940 oh        1 MOL     -0.561002
     86 H35         4.8300   -1.9410   -1.5200 hn        1 MOL      0.164115
     87 H36         5.8060    0.1810   -3.1180 h1        1 MOL      0.078974
     88 H37         2.9290   -0.0600   -2.0400 h1        1 MOL      0.142076
     89 H38         2.7010    1.0930   -3.8690 ho        1 MOL      0.401163
     90 H39         2.3930   -0.9730   -4.2290 hc        1 MOL      0.127973
     91 H40         3.9900   -0.9320   -4.8340 hc        1 MOL      0.127973
     92 H41         3.7020   -2.1190   -3.6580 hc        1 MOL      0.127973
     93 N9          5.7020    2.2100   -1.4290 n         1 MOL     -0.497200
     94 C29         5.8460    3.3700   -0.4890 c3        1 MOL     -0.126371
     95 C30         4.6880    4.3180   -0.6470 c         1 MOL      0.436245
     96 O16         4.7850    5.4360   -0.1720 o         1 MOL     -0.554452
     97 C31         7.2810    3.9770   -0.4050 c3        1 MOL      0.348284
     98 C32         7.7630    4.2710   -1.8420 c3        1 MOL     -0.019938
     99 C33         8.1400    3.1390    0.5550 c3        1 MOL     -0.270347
    100 C34         9.0630    5.0840   -1.8700 c3        1 MOL     -0.254345
    101 H42         5.9580    2.4640   -2.3670 hn        1 MOL      0.229073
    102 H43         5.5430    3.1370    0.5380 h1        1 MOL      0.135886
    103 H44         7.1900    4.9270    0.1360 hc        1 MOL     -0.024288
    104 H45         7.0840    4.9240   -2.3940 hc        1 MOL      0.040033
    105 H46         7.8830    3.3330   -2.3890 hc        1 MOL      0.040033
    106 H47         8.8560    3.8750    0.9210 hc        1 MOL      0.069102
    107 H48         7.6250    2.7120    1.4190 hc        1 MOL      0.069102
    108 H49         8.6650    2.3380    0.0390 hc        1 MOL      0.069102
    109 H50         8.9420    5.8990   -1.1530 hc        1 MOL      0.056764
    110 H51         9.8950    4.4320   -1.5920 hc        1 MOL      0.056764
    111 H52         9.2460    5.5610   -2.8370 hc        1 MOL      0.056764
    112 N10         3.5370    3.9190   -1.1550 n         1 MOL     -0.098087
    113 C35         2.2000    4.5330   -1.2270 c3        1 MOL     -0.136253
    114 C36         1.1220    3.5430   -0.8650 c         1 MOL      0.559730
    115 O17         1.1300    2.4340   -1.3930 o         1 MOL     -0.425915
    116 C37         1.8570    5.1170   -2.6050 c3        1 MOL      0.368622
    117 C38         1.8920    4.1310   -3.7160 c3        1 MOL     -0.334540
    118 O18         2.8680    6.0870   -2.8760 oh        1 MOL     -0.616863
    119 H53         3.3790    2.9470   -1.3720 hn        1 MOL      0.093812
    120 H54         2.0890    5.3190   -0.4770 h1        1 MOL      0.075006
    121 H55         0.9360    5.6930   -2.4500 h1        1 MOL     -0.010483
    122 H56         2.5920    6.6780   -3.5890 ho        1 MOL      0.390873
    123 H57         2.7860    3.5060   -3.6200 hc        1 MOL      0.082824
    124 H58         0.9790    3.5370   -3.7650 hc        1 MOL      0.082824
    125 H59         1.9440    4.6580   -4.6730 hc        1 MOL      0.082824
    126 N11         0.0850    4.0160   -0.1040 n         1 MOL     -0.494377
    127 C39        -1.1680    3.3160    0.2430 c3        1 MOL      0.040333
    128 C40        -2.0300    3.1060   -0.9710 c         1 MOL      0.421288
    129 O19        -1.9870    3.8910   -1.9000 o         1 MOL     -0.536556
    130 C41        -1.8840    3.9440    1.4040 c3        1 MOL      0.400430
    131 C42        -2.8160    5.0860    0.9700 c3        1 MOL     -0.370087
    132 O20        -0.9310    4.4480    2.3760 oh        1 MOL     -0.758900
    133 H60         0.1810    4.9030    0.3710 hn        1 MOL      0.280279
    134 H61        -0.9330    2.3240    0.6410 h1        1 MOL      0.058085
    135 H62        -2.4270    3.1160    1.8570 h1        1 MOL      0.047257
    136 H63        -0.4620    5.1800    1.9790 ho        1 MOL      0.441308
    137 H64        -3.5280    4.7120    0.2310 hc        1 MOL      0.100511
    138 H65        -3.4690    5.4410    1.7640 hc        1 MOL      0.100511
    139 H66        -2.2030    5.9030    0.5940 hc        1 MOL      0.100511
    140 N12        -2.8390    2.0350   -1.0190 n         1 MOL     -0.106260
    141 C43        -3.9840    1.9350   -1.9540 c3        1 MOL     -0.058159
    142 C44        -4.3870    0.4620   -2.2960 c         1 MOL      0.588733
    143 O21        -4.9890    0.2850   -3.3520 o         1 MOL     -0.617859
    144 C45        -5.2480    2.7470   -1.4560 c3        1 MOL     -0.028508
    145 C46        -6.4480    2.6860   -2.3520 c3        1 MOL     -0.040647
    146 C47        -7.5540    3.7060   -2.0390 c3        1 MOL      0.034440
    147 C48        -8.9520    3.4820   -2.7870 c3        1 MOL     -0.060848
    148 N13        -9.8400    2.8190   -1.8440 n4        1 MOL     -0.300645
    149 H67        -2.8880    1.4290   -0.2030 hn        1 MOL     -0.231417
    150 H68        -3.7230    2.3920   -2.9090 h1        1 MOL      0.101963
    151 H69        -5.1580    3.8280   -1.3490 hc        1 MOL      0.034221
    152 H70        -5.5870    2.2430   -0.5530 hc        1 MOL      0.034221
    153 H71        -6.9140    1.6970   -2.3030 hc        1 MOL      0.034373
    154 H72        -6.1140    2.8270   -3.3850 hc        1 MOL      0.034373
    155 H73        -7.1080    4.6780   -2.2260 hc        1 MOL      0.025430
    156 H74        -7.7060    3.8280   -0.9700 hc        1 MOL      0.025430
    157 H75        -8.7110    2.7520   -3.5710 hx        1 MOL      0.089220
    158 H76        -9.3690    4.4170   -3.1450 hx        1 MOL      0.089220
    159 H77        -9.9770    3.3440   -0.9890 hn        1 MOL      0.325204
    160 H78       -10.7990    2.8330   -2.1740 hn        1 MOL      0.325204
    161 H79        -9.4570    1.8980   -1.7570 hn        1 MOL      0.325204
    162 N14        -4.1230   -0.5120   -1.3920 n         1 MOL      0.102716
    163 C49        -4.4300   -1.9430   -1.6520 c3        1 MOL     -0.461072
    164 C50        -5.9500   -2.1420   -1.7600 c         1 MOL      0.453688
    165 O22        -6.7780   -1.6400   -1.0290 o         1 MOL     -0.487340
    166 C51        -3.8470   -2.7560   -0.5260 c3        1 MOL      0.456233
    167 C52        -4.0880   -4.2900   -0.7060 c3        1 MOL     -0.469277
    168 C53        -3.5870   -4.7880   -2.0830 c         1 MOL      0.646582
    169 O23        -4.4320   -5.0650   -2.9170 o         1 MOL     -0.706815
    170 O24        -2.3430   -4.8560   -2.4240 o         1 MOL     -0.706815
    171 H80        -3.7400   -0.2810   -0.4870 hn        1 MOL     -0.082898
    172 H81        -3.9940   -2.1930   -2.6220 h1        1 MOL      0.181545
    173 H82        -4.2820   -2.5230    0.4430 hc        1 MOL     -0.041450
    174 H83        -2.7710   -2.6520   -0.6170 hc        1 MOL     -0.041450
    175 H84        -5.1100   -4.5900   -0.4840 hc        1 MOL      0.149737
    176 H85        -3.5290   -4.8100    0.0680 hc        1 MOL      0.149737
    177 N15        -6.2830   -3.0590   -2.6490 n         1 MOL     -0.343068
    178 C54        -7.7050   -3.5160   -2.7620 c3        1 MOL     -0.153150
    179 H86        -7.7500   -4.4120   -3.3800 h1        1 MOL      0.085329
    180 H87        -8.0940   -3.7400   -1.7690 h1        1 MOL      0.085329
    181 H88        -8.3050   -2.7290   -3.2180 h1        1 MOL      0.085329
    182 H89        -5.5840   -3.6140   -3.1160 hn        1 MOL      0.375812
    183 Ca1         0.1420   -4.8270   -2.7220 Ca        1 MOL      1.649817
    184 O25        -1.3610   -5.2240   -5.2220 oh        1 MOL     -0.830273
    185 H90        -1.2300   -5.1010   -6.1590 ho        1 MOL      0.415600
    186 H91        -2.1630   -4.7390   -5.0260 ho        1 MOL      0.415600
    187 O26         0.4600   -2.8740   -4.6430 oh        1 MOL     -0.830273
    188 H92         0.1080   -2.0380   -4.3510 ho        1 MOL      0.415600
    189 H93         0.6890   -2.7430   -5.5610 ho        1 MOL      0.415600
    190 O27         2.0220   -5.3960   -4.3840 oh        1 MOL     -0.830273
    191 H94         1.8840   -6.1910   -4.8790 ho        1 MOL      0.415600
    192 H95         2.9780   -5.2860   -4.3610 ho        1 MOL      0.415600
@<TRIPOS>BOND
     1    1    2 1   
     2    1    4 1   
     3    1    5 1   
     4    1    6 1   
     5    2    3 2   
     6    2    7 1   
     7    7    8 1   
     8    7   15 1   
     9    8    9 1   
    10    8   11 1   
    11    8   16 1   
    12    9   10 2   
    13    9   19 1   
    14   11   12 1   
    15   11   17 1   
    16   11   18 1   
    17   12   13 1   
    18   12   14 1   
    19   19   20 1   
    20   19   28 1   
    21   20   21 1   
    22   20   23 1   
    23   20   29 1   
    24   21   22 2   
    25   21   41 1   
    26   23   24 1   
    27   23   30 1   
    28   23   31 1   
    29   24   25 1   
    30   24   32 1   
    31   24   33 1   
    32   25   26 1   
    33   25   34 1   
    34   25   35 1   
    35   26   27 1   
    36   26   36 1   
    37   26   37 1   
    38   27   38 1   
    39   27   39 1   
    40   27   40 1   
    41   41   42 1   
    42   41   49 1   
    43   42   43 1   
    44   42   45 1   
    45   42   50 1   
    46   43   44 2   
    47   43   53 1   
    48   45   46 1   
    49   45   51 1   
    50   45   52 1   
    51   46   47 1   
    52   46   48 1   
    53   53   54 1   
    54   53   57 1   
    55   54   55 1   
    56   54   58 1   
    57   54   59 1   
    58   55   56 2   
    59   55   60 1   
    60   60   61 1   
    61   60   68 1   
    62   61   62 1   
    63   61   64 1   
    64   61   69 1   
    65   62   63 2   
    66   62   72 1   
    67   64   65 1   
    68   64   70 1   
    69   64   71 1   
    70   65   66 1   
    71   65   67 1   
    72   72   73 1   
    73   72   76 1   
    74   73   74 1   
    75   73   77 1   
    76   73   78 1   
    77   74   75 2   
    78   74   79 1   
    79   79   80 1   
    80   79   86 1   
    81   80   81 1   
    82   80   83 1   
    83   80   87 1   
    84   81   82 2   
    85   81   93 1   
    86   83   84 1   
    87   83   85 1   
    88   83   88 1   
    89   84   90 1   
    90   84   91 1   
    91   84   92 1   
    92   85   89 1   
    93   93   94 1   
    94   93  101 1   
    95   94   95 1   
    96   94   97 1   
    97   94  102 1   
    98   95   96 2   
    99   95  112 1   
   100   97   98 1   
   101   97   99 1   
   102   97  103 1   
   103   98  100 1   
   104   98  104 1   
   105   98  105 1   
   106   99  106 1   
   107   99  107 1   
   108   99  108 1   
   109  100  109 1   
   110  100  110 1   
   111  100  111 1   
   112  112  113 1   
   113  112  119 1   
   114  113  114 1   
   115  113  116 1   
   116  113  120 1   
   117  114  115 2   
   118  114  126 1   
   119  116  117 1   
   120  116  118 1   
   121  116  121 1   
   122  117  123 1   
   123  117  124 1   
   124  117  125 1   
   125  118  122 1   
   126  126  127 1   
   127  126  133 1   
   128  127  128 1   
   129  127  130 1   
   130  127  134 1   
   131  128  129 2   
   132  128  140 1   
   133  130  131 1   
   134  130  132 1   
   135  130  135 1   
   136  131  137 1   
   137  131  138 1   
   138  131  139 1   
   139  132  136 1   
   140  140  141 1   
   141  140  149 1   
   142  141  142 1   
   143  141  144 1   
   144  141  150 1   
   145  142  143 2   
   146  142  162 1   
   147  144  145 1   
   148  144  151 1   
   149  144  152 1   
   150  145  146 1   
   151  145  153 1   
   152  145  154 1   
   153  146  147 1   
   154  146  155 1   
   155  146  156 1   
   156  147  148 1   
   157  147  157 1   
   158  147  158 1   
   159  148  159 1   
   160  148  160 1   
   161  148  161 1   
   162  162  163 1   
   163  162  171 1   
   164  163  164 1   
   165  163  166 1   
   166  163  172 1   
   167  164  165 2   
   168  164  177 1   
   169  166  167 1   
   170  166  173 1   
   171  166  174 1   
   172  167  168 1   
   173  167  175 1   
   174  167  176 1   
   175  168  169 1   
   176  168  170 1   
   177  177  178 1   
   178  177  182 1   
   179  178  179 1   
   180  178  180 1   
   181  178  181 1   
   182  184  185 1   
   183  184  186 1   
   184  187  188 1   
   185  187  189 1   
   186  190  191 1   
   187  190  192 1   
@<TRIPOS>SUBSTRUCTURE
     1 MOL         1 TEMP              0 ****  ****    0 ROOT
