@<TRIPOS>MOLECULE
MOL
  175   173     1     0     0
SMALL
resp


@<TRIPOS>ATOM
      1 C1         -6.1960    8.1010    1.6890 c3        1 MOL     -0.350519
      2 C2         -6.9200    7.2920    0.5370 c         1 MOL      0.617988
      3 O1         -6.9020    7.7210   -0.6180 o         1 MOL     -0.576695
      4 H1         -5.7190    7.4030    2.3770 hc        1 MOL      0.077931
      5 H2         -5.4410    8.7560    1.2550 hc        1 MOL      0.077931
      6 H3         -6.9310    8.6990    2.2300 hc        1 MOL      0.077931
      7 N1         -7.5950    6.2630    0.9580 n         1 MOL     -0.370170
      8 C3         -8.5300    5.4920    0.0910 c3        1 MOL      0.064234
      9 C4         -7.6920    4.3540   -0.6740 c         1 MOL      0.405763
     10 O2         -8.2940    3.7890   -1.6360 o         1 MOL     -0.521881
     11 C5         -9.5980    4.8440    0.9040 c3        1 MOL     -0.177847
     12 C6        -10.7920    4.2610    0.0480 c         1 MOL      0.770162
     13 O3        -11.1910    3.1100    0.3010 o         1 MOL     -0.736940
     14 O4        -11.4580    5.0800   -0.6150 o         1 MOL     -0.736940
     15 H4         -7.6130    6.0770    1.9500 hn        1 MOL      0.243380
     16 H5         -9.0200    6.1200   -0.6530 h1        1 MOL      0.072838
     17 H6        -10.0720    5.5660    1.5690 hc        1 MOL      0.008529
     18 H7         -9.0880    4.0580    1.4580 hc        1 MOL      0.008529
     19 N2         -6.4990    4.0320   -0.1900 n         1 MOL     -0.340269
     20 C7         -5.5750    3.0320   -0.7050 c3        1 MOL      0.287271
     21 C8         -5.1860    2.0070    0.5070 c         1 MOL      0.514218
     22 O5         -4.9790    2.4250    1.5850 o         1 MOL     -0.531612
     23 C9         -4.2120    3.7130   -1.1610 c3        1 MOL     -0.430841
     24 H8         -6.1060    4.6110    0.5360 hn        1 MOL      0.197609
     25 H9         -6.0430    2.4980   -1.5280 h1        1 MOL      0.022326
     26 H10        -4.3930    4.4280   -1.9670 hc        1 MOL      0.116773
     27 H11        -3.7960    4.2580   -0.3220 hc        1 MOL      0.116773
     28 H12        -3.5960    2.9330   -1.6050 hc        1 MOL      0.116773
     29 N3         -5.0810    0.6940    0.2890 n         1 MOL     -0.477178
     30 C10        -5.3340    0.0090   -0.9680 c3        1 MOL     -0.028571
     31 C11        -5.5500   -1.5230   -0.6680 c         1 MOL      0.546766
     32 O6         -4.9470   -2.0000    0.2800 o         1 MOL     -0.535891
     33 C12        -4.1940    0.1970   -1.9820 c3        1 MOL     -0.133776
     34 C13        -2.8340   -0.2370   -1.5380 c         1 MOL      0.771848
     35 O7         -2.1340    0.4540   -0.7590 o         1 MOL     -0.741195
     36 O8         -2.2680   -1.2360   -1.9900 o         1 MOL     -0.741195
     37 H13        -4.6700    0.2060    1.0710 hn        1 MOL      0.311877
     38 H14        -6.2250    0.4040   -1.4580 h1        1 MOL      0.067869
     39 H15        -4.1870    1.2050   -2.3940 hc        1 MOL      0.037281
     40 H16        -4.5110   -0.3080   -2.8950 hc        1 MOL      0.037281
     41 N4         -6.3940   -2.2340   -1.4570 n         1 MOL     -0.476887
     42 C14        -6.5730   -3.6830   -1.3820 c3        1 MOL      0.148103
     43 C15        -6.1790   -4.4970   -2.6150 c         1 MOL      0.514704
     44 O9         -7.0230   -4.6920   -3.4410 o         1 MOL     -0.557903
     45 H17        -6.7920   -1.7490   -2.2430 hn        1 MOL      0.324385
     46 H18        -7.6310   -3.8660   -1.2050 h1        1 MOL      0.029415
     47 H19        -6.0320   -4.1600   -0.5570 h1        1 MOL      0.029415
     48 N5         -4.9360   -4.8890   -2.7780 n         1 MOL     -0.450567
     49 C16        -3.7940   -4.5730   -1.9300 c3        1 MOL      0.094878
     50 C17        -3.7240   -5.3910   -0.6690 c         1 MOL      0.474965
     51 O10        -3.9850   -6.5870   -0.7100 o         1 MOL     -0.586452
     52 C18        -2.4730   -4.9240   -2.7280 c3        1 MOL     -0.060907
     53 C19        -1.1850   -4.5400   -2.0150 c         1 MOL      0.467178
     54 N6         -0.0330   -4.9760   -2.3860 n         1 MOL     -0.647735
     55 O11        -1.1750   -3.8690   -0.9860 o         1 MOL     -0.513980
     56 H20        -4.7600   -5.4130   -3.6290 hn        1 MOL      0.290738
     57 H21        -3.8040   -3.5000   -1.7310 h1        1 MOL     -0.021166
     58 H22        -2.5970   -4.4000   -3.6770 hc        1 MOL      0.056059
     59 H23        -2.4490   -5.9660   -3.0480 hc        1 MOL      0.056059
     60 H24         0.0340   -5.7370   -3.0410 hn        1 MOL      0.334400
     61 H25         0.7550   -4.8850   -1.7600 hn        1 MOL      0.334400
     62 N7         -3.3730   -4.7690    0.4160 n         1 MOL     -0.079411
     63 C20        -3.5760   -5.2880    1.7840 c3        1 MOL     -0.214920
     64 C21        -2.1680   -5.7330    2.3850 c         1 MOL      0.503370
     65 O12        -2.0860   -6.2480    3.5060 o         1 MOL     -0.557679
     66 H26        -3.1070   -3.8010    0.3170 hn        1 MOL      0.222478
     67 H27        -4.2980   -6.1080    1.7570 h1        1 MOL      0.110481
     68 H28        -4.0340   -4.4450    2.2990 h1        1 MOL      0.110481
     69 N8         -1.0160   -5.3900    1.7770 n         1 MOL     -0.080578
     70 C22         0.3280   -5.4050    2.3420 c3        1 MOL     -0.339829
     71 C23         1.0140   -4.1020    2.0060 c         1 MOL      0.718863
     72 O13         0.7020   -3.3530    1.0760 o         1 MOL     -0.607673
     73 C24         1.1480   -6.5620    1.7470 c3        1 MOL      0.394534
     74 C25         0.5970   -7.8920    2.3310 c3        1 MOL     -0.423280
     75 O14         1.1080   -6.5400    0.3740 oh        1 MOL     -0.616770
     76 H29        -1.1670   -4.9160    0.8950 hn        1 MOL      0.113156
     77 H30         0.2740   -5.5730    3.4200 h1        1 MOL      0.143231
     78 H31         2.2040   -6.5490    2.0070 h1        1 MOL      0.001759
     79 H32         1.9310   -6.6720   -0.0900 ho        1 MOL      0.414099
     80 H33         1.2190   -8.7250    2.0130 hc        1 MOL      0.109376
     81 H34         0.6880   -7.8870    3.4170 hc        1 MOL      0.109376
     82 H35        -0.4600   -7.9830    2.0720 hc        1 MOL      0.109376
     83 N9          1.9710   -3.7080    2.8400 n         1 MOL     -0.477310
     84 C26         2.8850   -2.5460    2.6960 c3        1 MOL     -0.009348
     85 C27         4.0560   -2.9250    1.7770 c         1 MOL      0.386850
     86 O15         4.9120   -3.7500    2.0920 o         1 MOL     -0.563050
     87 C28         3.3810   -2.0940    4.1570 c3        1 MOL      0.295495
     88 C29         4.5900   -1.0800    4.1110 c3        1 MOL     -0.061853
     89 C30         2.2920   -1.7890    5.0960 c3        1 MOL     -0.285125
     90 C31         4.4560    0.2950    3.4370 c3        1 MOL     -0.149081
     91 H36         2.1740   -4.3600    3.5770 hn        1 MOL      0.271355
     92 H37         2.3370   -1.6700    2.3420 h1        1 MOL      0.066005
     93 H38         3.7390   -3.0420    4.5570 hc        1 MOL     -0.055688
     94 H39         5.4530   -1.5900    3.6900 hc        1 MOL      0.005299
     95 H40         4.8750   -0.9630    5.1600 hc        1 MOL      0.005299
     96 H41         2.6810   -1.4190    6.0410 hc        1 MOL      0.061329
     97 H42         1.6030   -1.0610    4.6610 hc        1 MOL      0.061329
     98 H43         1.6910   -2.6730    5.2990 hc        1 MOL      0.061329
     99 H44         5.3680    0.8980    3.5180 hc        1 MOL      0.052073
    100 H45         4.4630    0.1310    2.3600 hc        1 MOL      0.052073
    101 H46         3.6160    0.8660    3.8400 hc        1 MOL      0.052073
    102 N10         4.1340   -2.2680    0.6610 n         1 MOL     -0.033656
    103 C32         4.9490   -2.7360   -0.4820 c3        1 MOL     -0.147206
    104 C33         5.6090   -1.5830   -1.2700 c         1 MOL      0.511864
    105 O16         5.9440   -1.6210   -2.4700 o         1 MOL     -0.510428
    106 C34         4.1070   -3.6150   -1.4130 c3        1 MOL      0.058301
    107 C35         2.9050   -2.8280   -2.0950 c         1 MOL      0.695950
    108 O17         2.9750   -2.7270   -3.3640 o         1 MOL     -0.704001
    109 O18         1.9410   -2.4760   -1.4120 o         1 MOL     -0.704001
    110 H47         3.4490   -1.5730    0.4240 hn        1 MOL      0.117557
    111 H48         5.7530   -3.3860   -0.1160 h1        1 MOL      0.087480
    112 H49         3.6460   -4.4370   -0.8590 hc        1 MOL     -0.032049
    113 H50         4.5900   -4.0350   -2.2980 hc        1 MOL     -0.032049
    114 N11         5.7970   -0.4610   -0.5560 n         1 MOL     -0.345189
    115 C36         6.3970    0.8050   -1.1350 c3        1 MOL      0.146737
    116 C37         5.9260    2.1120   -0.4490 c         1 MOL      0.359671
    117 O19         5.6370    2.0790    0.7770 o         1 MOL     -0.509564
    118 C38         7.8880    0.8090   -1.0230 c3        1 MOL     -0.297821
    119 C39         8.7030    1.8040   -1.8610 ca        1 MOL      0.152423
    120 C40         8.9350    3.1280   -1.4300 ca        1 MOL     -0.206271
    121 C41         9.2450    1.4010   -3.0960 ca        1 MOL     -0.206271
    122 C42         9.8390    3.9230   -2.1870 ca        1 MOL     -0.060686
    123 C43        10.0400    2.2180   -3.9510 ca        1 MOL     -0.060686
    124 C44        10.3780    3.4960   -3.4150 ca        1 MOL     -0.182342
    125 H51         5.4330   -0.3780    0.3830 hn        1 MOL      0.157893
    126 H52         6.0080    0.7570   -2.1500 h1        1 MOL      0.074260
    127 H53         8.2220   -0.2060   -1.2440 hc        1 MOL      0.113189
    128 H54         8.3040    0.9870   -0.0320 hc        1 MOL      0.113189
    129 H55         8.5250    3.4470   -0.4830 ha        1 MOL      0.132650
    130 H56         9.0160    0.3990   -3.4520 ha        1 MOL      0.132650
    131 H57        10.1600    4.8540   -1.7590 ha        1 MOL      0.106525
    132 H58        10.4110    1.7950   -4.8750 ha        1 MOL      0.106525
    133 H59        10.9640    4.2080   -3.9740 ha        1 MOL      0.112968
    134 N12         5.7260    3.2660   -1.1570 n         1 MOL      0.023241
    135 C45         5.7780    4.6140   -0.6140 c3        1 MOL     -0.106681
    136 C46         4.4850    5.0130    0.1680 c         1 MOL      0.382483
    137 O20         4.4780    6.1250    0.7300 o         1 MOL     -0.519264
    138 C47         6.0700    5.4570   -1.8510 c3        1 MOL      0.053549
    139 C48         5.5490    4.7240   -3.0600 c3        1 MOL      0.021396
    140 C49         5.7220    3.2710   -2.6150 c3        1 MOL     -0.257445
    141 H60         6.6010    4.7110    0.0930 h1        1 MOL      0.095317
    142 H61         5.6510    6.4690   -1.8450 hc        1 MOL      0.001240
    143 H62         7.1590    5.5500   -1.8450 hc        1 MOL      0.001240
    144 H63         4.5030    5.0000   -3.2200 hc        1 MOL      0.032049
    145 H64         6.0990    5.0110   -3.9480 hc        1 MOL      0.032049
    146 H65         4.9540    2.5920   -2.9520 h1        1 MOL      0.101506
    147 H66         6.7030    2.9330   -2.9460 h1        1 MOL      0.101506
    148 N13         3.6360    4.0840    0.5270 n         1 MOL     -0.096780
    149 C50         2.4550    4.4620    1.3420 c3        1 MOL     -0.206378
    150 C51         2.8660    4.9030    2.8060 c         1 MOL      0.487294
    151 O21         2.2460    5.8350    3.3260 o         1 MOL     -0.527779
    152 C52         1.4100    3.3300    1.3180 c3        1 MOL     -0.100373
    153 C53         2.0300    1.9680    1.7250 c3        1 MOL     -0.002823
    154 C54         1.3300    0.7870    1.0840 c         1 MOL      0.594582
    155 O22         1.8070    0.1150    0.1580 o         1 MOL     -0.686469
    156 O23         0.2550    0.4180    1.5940 o         1 MOL     -0.686469
    157 H67         3.5240    3.2460   -0.0230 hn        1 MOL      0.177350
    158 H68         2.0430    5.3370    0.8230 h1        1 MOL      0.135325
    159 H69         1.0800    3.3410    0.2790 hc        1 MOL      0.079856
    160 H70         0.5060    3.5190    1.8940 hc        1 MOL      0.079856
    161 H71         1.9950    1.8780    2.8130 hc        1 MOL      0.015009
    162 H72         3.0370    1.8090    1.3320 hc        1 MOL      0.015009
    163 N14         3.9900    4.4280    3.3930 n         1 MOL     -0.187199
    164 C55         4.6110    4.8700    4.6580 c3        1 MOL     -0.099350
    165 H73         5.0370    4.0100    5.1740 h1        1 MOL      0.063176
    166 H74         5.4000    5.5910    4.4430 h1        1 MOL      0.063176
    167 H75         3.8550    5.3360    5.2910 h1        1 MOL      0.063176
    168 H76         4.4200    3.6870    2.8630 hn        1 MOL      0.158879
    169 Ca1        -0.1590   -1.3810   -0.4670 Ca        1 MOL      1.773720
    170 O24         0.3090    0.0010   -2.7890 oh        1 MOL     -0.925507
    171 H77        -0.2020    0.4370   -3.4690 ho        1 MOL      0.435368
    172 H78         1.2000   -0.0090   -3.1460 ho        1 MOL      0.435368
    173 O25        -2.1820   -1.7280    1.0890 oh        1 MOL     -0.925507
    174 H79        -3.0540   -1.8020    0.7120 ho        1 MOL      0.435368
    175 H80        -2.2870   -1.1330    1.8320 ho        1 MOL      0.435368
@<TRIPOS>BOND
     1    1    2 1   
     2    1    4 1   
     3    1    5 1   
     4    1    6 1   
     5    2    3 2   
     6    2    7 1   
     7    7    8 1   
     8    7   15 1   
     9    8    9 1   
    10    8   11 1   
    11    8   16 1   
    12    9   10 2   
    13    9   19 1   
    14   11   12 1   
    15   11   17 1   
    16   11   18 1   
    17   12   13 1   
    18   12   14 1   
    19   19   20 1   
    20   19   24 1   
    21   20   21 1   
    22   20   23 1   
    23   20   25 1   
    24   21   22 2   
    25   21   29 1   
    26   23   26 1   
    27   23   27 1   
    28   23   28 1   
    29   29   30 1   
    30   29   37 1   
    31   30   31 1   
    32   30   33 1   
    33   30   38 1   
    34   31   32 2   
    35   31   41 1   
    36   33   34 1   
    37   33   39 1   
    38   33   40 1   
    39   34   35 1   
    40   34   36 1   
    41   41   42 1   
    42   41   45 1   
    43   42   43 1   
    44   42   46 1   
    45   42   47 1   
    46   43   44 2   
    47   43   48 1   
    48   48   49 1   
    49   48   56 1   
    50   49   50 1   
    51   49   52 1   
    52   49   57 1   
    53   50   51 2   
    54   50   62 1   
    55   52   53 1   
    56   52   58 1   
    57   52   59 1   
    58   53   54 1   
    59   53   55 2   
    60   54   60 1   
    61   54   61 1   
    62   62   63 1   
    63   62   66 1   
    64   63   64 1   
    65   63   67 1   
    66   63   68 1   
    67   64   65 2   
    68   64   69 1   
    69   69   70 1   
    70   69   76 1   
    71   70   71 1   
    72   70   73 1   
    73   70   77 1   
    74   71   72 2   
    75   71   83 1   
    76   73   74 1   
    77   73   75 1   
    78   73   78 1   
    79   74   80 1   
    80   74   81 1   
    81   74   82 1   
    82   75   79 1   
    83   83   84 1   
    84   83   91 1   
    85   84   85 1   
    86   84   87 1   
    87   84   92 1   
    88   85   86 2   
    89   85  102 1   
    90   87   88 1   
    91   87   89 1   
    92   87   93 1   
    93   88   90 1   
    94   88   94 1   
    95   88   95 1   
    96   89   96 1   
    97   89   97 1   
    98   89   98 1   
    99   90   99 1   
   100   90  100 1   
   101   90  101 1   
   102  102  103 1   
   103  102  110 1   
   104  103  104 1   
   105  103  106 1   
   106  103  111 1   
   107  104  105 2   
   108  104  114 1   
   109  106  107 1   
   110  106  112 1   
   111  106  113 1   
   112  107  108 1   
   113  107  109 1   
   114  114  115 1   
   115  114  125 1   
   116  115  116 1   
   117  115  118 1   
   118  115  126 1   
   119  116  117 2   
   120  116  134 1   
   121  118  119 1   
   122  118  127 1   
   123  118  128 1   
   124  119  120 ar  
   125  119  121 ar  
   126  120  122 ar  
   127  120  129 1   
   128  121  123 ar  
   129  121  130 1   
   130  122  124 ar  
   131  122  131 1   
   132  123  124 ar  
   133  123  132 1   
   134  124  133 1   
   135  134  135 1   
   136  134  140 1   
   137  135  136 1   
   138  135  138 1   
   139  135  141 1   
   140  136  137 2   
   141  136  148 1   
   142  138  139 1   
   143  138  142 1   
   144  138  143 1   
   145  139  140 1   
   146  139  144 1   
   147  139  145 1   
   148  140  146 1   
   149  140  147 1   
   150  148  149 1   
   151  148  157 1   
   152  149  150 1   
   153  149  152 1   
   154  149  158 1   
   155  150  151 2   
   156  150  163 1   
   157  152  153 1   
   158  152  159 1   
   159  152  160 1   
   160  153  154 1   
   161  153  161 1   
   162  153  162 1   
   163  154  155 1   
   164  154  156 1   
   165  163  164 1   
   166  163  168 1   
   167  164  165 1   
   168  164  166 1   
   169  164  167 1   
   170  170  171 1   
   171  170  172 1   
   172  173  174 1   
   173  173  175 1   
@<TRIPOS>SUBSTRUCTURE
     1 MOL         1 TEMP              0 ****  ****    0 ROOT
