@<TRIPOS>MOLECULE
MOL
  182   178     1     0     0
SMALL
resp


@<TRIPOS>ATOM
      1 C1          0.2680   -3.7340    6.2970 c3        1 MOL     -0.427899
      2 C2          0.5060   -3.5820    4.7920 c         1 MOL      0.758807
      3 O1         -0.4820   -3.4670    4.0540 o         1 MOL     -0.579585
      4 H1         -0.7600   -3.4590    6.5320 hc        1 MOL      0.121727
      5 H2          0.4420   -4.7690    6.5910 hc        1 MOL      0.121727
      6 H3          0.9510   -3.0810    6.8420 hc        1 MOL      0.121727
      7 N1          1.8050   -3.4520    4.3820 n         1 MOL     -0.738674
      8 C3          2.0750   -3.1230    2.9380 c3        1 MOL      0.406207
      9 C4          2.0640   -4.3610    1.9990 c         1 MOL      0.386863
     10 O2          2.4160   -5.4870    2.4250 o         1 MOL     -0.544429
     11 C5          3.3020   -2.3090    2.9110 c3        1 MOL     -0.138853
     12 C6          3.5870   -1.5560    1.5940 c         1 MOL      0.591968
     13 O3          4.1870   -0.4610    1.6170 o         1 MOL     -0.671721
     14 O4          3.2410   -1.9600    0.4840 o         1 MOL     -0.671721
     15 H4          2.4770   -3.7030    5.0990 hn        1 MOL      0.368854
     16 H5          1.4110   -2.3230    2.6210 h1        1 MOL     -0.187495
     17 H6          4.1550   -2.9600    3.1080 hc        1 MOL      0.053958
     18 H7          3.2170   -1.5450    3.6690 hc        1 MOL      0.053958
     19 N2          1.7750   -4.1410    0.7350 n         1 MOL     -0.173807
     20 C7          1.6400   -5.2080   -0.3520 c3        1 MOL     -0.010648
     21 C8          2.8750   -5.2650   -1.3270 c         1 MOL      0.487898
     22 O5          3.1330   -6.3230   -1.8940 o         1 MOL     -0.586531
     23 C9          0.2620   -4.9620   -0.9180 c3        1 MOL      0.026235
     24 C10        -0.1810   -6.1950   -1.7490 c3        1 MOL      0.051562
     25 C11        -1.5950   -6.0220   -2.2760 c3        1 MOL      0.055982
     26 C12        -2.0570   -7.3890   -2.8020 c3        1 MOL      0.095582
     27 N3         -3.5330   -7.4470   -3.0980 n4        1 MOL     -0.322892
     28 H8          1.7320   -3.1690    0.4490 hn        1 MOL      0.289970
     29 H9          1.6600   -6.1080    0.2670 h1        1 MOL      0.086519
     30 H10         0.3790   -4.0660   -1.5330 hc        1 MOL     -0.045092
     31 H11        -0.3900   -4.8120   -0.0660 hc        1 MOL     -0.045092
     32 H12        -0.1650   -7.1120   -1.1530 hc        1 MOL      0.014722
     33 H13         0.4640   -6.3130   -2.6190 hc        1 MOL      0.014722
     34 H14        -1.6820   -5.3060   -3.0970 hc        1 MOL      0.012999
     35 H15        -2.2750   -5.7180   -1.4830 hc        1 MOL      0.012999
     36 H16        -1.6730   -8.1110   -2.0700 hx        1 MOL      0.041977
     37 H17        -1.4910   -7.5650   -3.7150 hx        1 MOL      0.041977
     38 H18        -3.7470   -7.1440   -4.0310 hn        1 MOL      0.261121
     39 H19        -3.8480   -8.4090   -3.0100 hn        1 MOL      0.261121
     40 H20        -4.1010   -6.9840   -2.4000 hn        1 MOL      0.261121
     41 N4          3.6080   -4.1950   -1.4790 n         1 MOL     -0.079098
     42 C13         4.9010   -3.9730   -2.2920 c3        1 MOL      0.023002
     43 C14         6.1160   -3.6590   -1.3930 c         1 MOL      0.445674
     44 O6          7.2080   -3.8250   -1.8430 o         1 MOL     -0.502725
     45 C15         4.7520   -2.8670   -3.4150 c3        1 MOL     -0.350326
     46 C16         4.1980   -1.5520   -2.9020 c         1 MOL      0.822772
     47 O7          4.8700   -0.9790   -2.0490 o         1 MOL     -0.757266
     48 O8          3.0370   -1.1320   -3.2600 o         1 MOL     -0.757266
     49 H21         3.2150   -3.4600   -0.8970 hn        1 MOL     -0.121513
     50 H22         5.1290   -4.9050   -2.8280 h1        1 MOL      0.120734
     51 H23         4.2190   -3.2550   -4.2810 hc        1 MOL      0.116464
     52 H24         5.7500   -2.6010   -3.7640 hc        1 MOL      0.116464
     53 N5          5.8340   -3.0000   -0.2470 n         1 MOL     -0.196608
     54 C17         6.7530   -2.7220    0.8660 c3        1 MOL     -0.209603
     55 C18         7.5210   -1.3630    0.8040 c         1 MOL      0.438487
     56 O9          8.4280   -0.9840    1.5700 o         1 MOL     -0.569981
     57 H25         4.8730   -2.7520   -0.0670 hn        1 MOL      0.153705
     58 H26         7.4900   -3.5130    0.9950 h1        1 MOL      0.126805
     59 H27         6.1950   -2.6720    1.7910 h1        1 MOL      0.126805
     60 N6          7.0820   -0.5530   -0.0850 n         1 MOL     -0.041915
     61 C19         7.5620    0.8110   -0.2210 c3        1 MOL     -0.020651
     62 C20         6.4500    1.8760   -0.1440 c         1 MOL      0.618225
     63 O10         5.2580    1.5180   -0.3270 o         1 MOL     -0.618605
     64 C21         8.4320    0.8280   -1.5270 c3        1 MOL     -0.270494
     65 C22         7.7410    1.5710   -2.7050 c         1 MOL      0.611594
     66 N7          6.5450    1.1810   -2.9890 n         1 MOL     -0.621358
     67 O11         8.2480    2.4810   -3.2120 o         1 MOL     -0.561805
     68 H28         6.4020   -0.9460   -0.7150 hn        1 MOL      0.185738
     69 H29         8.1510    1.1250    0.6340 h1        1 MOL      0.071376
     70 H30         8.6670   -0.1980   -1.8150 hc        1 MOL      0.101189
     71 H31         9.4160    1.2940   -1.4140 hc        1 MOL      0.101189
     72 H32         6.1530    0.3490   -2.5730 hn        1 MOL      0.293677
     73 H33         5.9890    1.5510   -3.7430 hn        1 MOL      0.293677
     74 N8          6.8760    3.1570   -0.0090 n         1 MOL     -0.463170
     75 C23         5.9590    4.3140   -0.2930 c3        1 MOL      0.007080
     76 C24         4.7220    4.5910    0.5790 c         1 MOL      0.568485
     77 O12         4.8270    4.6920    1.7920 o         1 MOL     -0.489062
     78 H34         7.8480    3.3460    0.1510 hn        1 MOL      0.337023
     79 H35         5.5980    4.2420   -1.3210 h1        1 MOL      0.059227
     80 H36         6.6380    5.1580   -0.2980 h1        1 MOL      0.059227
     81 N9          3.4980    4.7240    0.0230 n         1 MOL     -0.564617
     82 C25         2.1780    4.6220    0.6320 c3        1 MOL      0.134968
     83 C26         1.8810    3.1560    1.1040 c         1 MOL      0.342021
     84 O13         2.7370    2.3040    1.0030 o         1 MOL     -0.341775
     85 C27         1.1700    5.1730   -0.3110 c3        1 MOL     -0.238717
     86 C28         1.1410    6.6540   -0.4900 ca        1 MOL      0.142561
     87 C29         1.2380    7.5040    0.6170 ca        1 MOL     -0.169922
     88 C30         0.9890    7.1840   -1.7710 ca        1 MOL     -0.169922
     89 C31         1.3270    8.8800    0.3490 ca        1 MOL     -0.220960
     90 C32         1.0400    8.5530   -2.0080 ca        1 MOL     -0.220960
     91 C33         1.2470    9.4090   -0.9020 ca        1 MOL      0.271565
     92 O14         0.9340   10.7070   -1.0260 oh        1 MOL     -0.437966
     93 H37         3.4080    4.6840   -0.9790 hn        1 MOL      0.273041
     94 H38         2.1950    5.2360    1.5320 h1        1 MOL      0.107586
     95 H39         0.1800    4.9700    0.1000 hc        1 MOL      0.067534
     96 H40         1.2450    4.6200   -1.2430 hc        1 MOL      0.067534
     97 H41         1.3610    7.1170    1.6200 ha        1 MOL      0.121549
     98 H42         0.8500    6.5190   -2.6120 ha        1 MOL      0.121549
     99 H43         1.3650    9.6050    1.1600 ha        1 MOL      0.150785
    100 H44         0.6940    8.9450   -2.9580 ha        1 MOL      0.150785
    101 H45         1.0490   11.1450   -0.1780 ho        1 MOL      0.346431
    102 N10         0.7780    2.9900    1.7910 n         1 MOL     -0.467056
    103 C34         0.3560    1.7510    2.4680 c3        1 MOL      0.050110
    104 C35         0.0200    0.5700    1.5260 c         1 MOL      0.061403
    105 O15         0.9020   -0.0670    0.9890 o         1 MOL     -0.212940
    106 C36         1.2290    1.3680    3.6720 c3        1 MOL      0.280862
    107 C37         0.6500    0.2720    4.6420 c3        1 MOL     -0.041560
    108 C38         1.6000    2.5690    4.5860 c3        1 MOL     -0.336358
    109 C39        -0.6260    0.7040    5.3350 c3        1 MOL     -0.440745
    110 H46         0.2450    3.8160    2.0270 hn        1 MOL      0.307069
    111 H47        -0.6330    1.9510    2.8870 h1        1 MOL      0.072759
    112 H48         2.2150    0.9800    3.4130 hc        1 MOL     -0.012879
    113 H49         1.3430   -0.0750    5.4130 hc        1 MOL      0.081402
    114 H50         0.4840   -0.5750    3.9800 hc        1 MOL      0.081402
    115 H51         0.6640    3.0400    4.8870 hc        1 MOL      0.082353
    116 H52         2.1310    2.2730    5.4940 hc        1 MOL      0.082353
    117 H53         2.2070    3.2630    4.0120 hc        1 MOL      0.082353
    118 H54        -1.3410    1.1420    4.6370 hc        1 MOL      0.109662
    119 H55        -1.0750   -0.1960    5.7430 hc        1 MOL      0.109662
    120 H56        -0.3330    1.3870    6.1280 hc        1 MOL      0.109662
    121 N11        -1.2600    0.3290    1.3320 n         1 MOL     -0.022129
    122 C40        -1.7190   -0.8490    0.5430 c3        1 MOL     -0.545672
    123 C41        -3.1830   -0.9470    0.0670 c         1 MOL      0.897061
    124 O16        -3.5250   -1.8240   -0.7230 o         1 MOL     -0.617054
    125 C42        -1.5100   -2.1650    1.2820 c3        1 MOL      0.473323
    126 O17        -2.1180   -2.1440    2.5430 oh        1 MOL     -0.686120
    127 H57        -1.8850    1.0260    1.7130 hn        1 MOL      0.206955
    128 H58        -1.1890   -0.7670   -0.4040 h1        1 MOL      0.134200
    129 H59        -0.4380   -2.3130    1.3920 h1        1 MOL     -0.020932
    130 H60        -1.9240   -2.9470    0.6460 h1        1 MOL     -0.020932
    131 H61        -1.6410   -2.6740    3.1840 ho        1 MOL      0.433106
    132 N12        -4.0750    0.0040    0.4620 n         1 MOL     -0.679726
    133 C43        -5.4240    0.1050   -0.1230 c3        1 MOL      0.094907
    134 C44        -5.5230    0.7520   -1.5320 c         1 MOL      0.678801
    135 O18        -4.5560    1.3690   -1.9020 o         1 MOL     -0.565787
    136 C45        -6.2800    0.8680    0.9170 c3        1 MOL     -0.243526
    137 H62        -3.8220    0.7110    1.1340 hn        1 MOL      0.359569
    138 H63        -5.8420   -0.9040   -0.1480 h1        1 MOL      0.105369
    139 H64        -7.2440    1.1410    0.4920 hc        1 MOL      0.083903
    140 H65        -6.4840    0.2280    1.7730 hc        1 MOL      0.083903
    141 H66        -5.6710    1.6790    1.3170 hc        1 MOL      0.083903
    142 N13        -6.5880    0.5990   -2.4290 n         1 MOL     -0.766164
    143 C46        -7.8510   -0.1910   -2.2020 c3        1 MOL      0.499590
    144 C47        -9.0890    0.5610   -2.7770 c         1 MOL      0.416587
    145 O19        -9.0630    1.0070   -3.8850 o         1 MOL     -0.558359
    146 C48        -7.6910   -1.6240   -2.8260 c3        1 MOL     -0.360157
    147 H67        -6.3390    0.8820   -3.3670 hn        1 MOL      0.363090
    148 H68        -8.0410   -0.3580   -1.1370 h1        1 MOL     -0.086990
    149 H69        -6.8370   -2.1320   -2.3630 hc        1 MOL      0.095169
    150 H70        -8.6460   -2.1060   -2.6270 hc        1 MOL      0.095169
    151 H71        -7.5890   -1.5240   -3.9000 hc        1 MOL      0.095169
    152 N14       -10.2480    0.6510   -2.1980 n         1 MOL     -0.343558
    153 C49       -10.4520    0.2730   -0.8110 c3        1 MOL     -0.277350
    154 C50        -9.9530    1.3000    0.2080 c         1 MOL      0.481109
    155 O20        -9.5080    0.8870    1.3090 o         1 MOL     -0.526621
    156 C51       -11.9960    0.0480   -0.6210 c3        1 MOL     -0.132705
    157 C52       -12.2960   -0.2250    0.8120 c3        1 MOL     -0.210289
    158 C53       -13.7910   -0.3600    1.0320 c         1 MOL      0.730568
    159 O21       -14.3950    0.6900    1.2220 o         1 MOL     -0.665899
    160 O22       -14.3210   -1.4880    1.1190 o         1 MOL     -0.665899
    161 H72       -10.9070    1.1600   -2.7690 hn        1 MOL      0.299310
    162 H73        -9.9910   -0.7060   -0.6990 h1        1 MOL      0.208446
    163 H74       -12.2000   -0.8340   -1.2270 hc        1 MOL      0.075216
    164 H75       -12.5780    0.9010   -0.9760 hc        1 MOL      0.075216
    165 H76       -11.9160    0.5550    1.4630 hc        1 MOL      0.069370
    166 H77       -11.8490   -1.1910    1.0530 hc        1 MOL      0.069370
    167 N15        -9.8890    2.5650   -0.1880 n         1 MOL     -0.205958
    168 C54        -9.1890    3.6390    0.5150 c3        1 MOL     -0.128622
    169 H78        -9.5960    3.7390    1.5210 h1        1 MOL      0.077789
    170 H79        -8.1270    3.4020    0.5760 h1        1 MOL      0.077789
    171 H80        -9.3230    4.5760   -0.0260 h1        1 MOL      0.077789
    172 H81       -10.2820    2.7060   -1.1000 hn        1 MOL      0.251114
    173 Ca1         2.9980    0.2690   -0.7790 Ca        1 MOL      1.674987
    174 O23         3.5950    1.9630   -2.7520 oh        1 MOL     -0.831072
    175 H82         3.1390    2.5410   -3.3560 ho        1 MOL      0.416365
    176 H83         4.5170    2.2320   -2.8060 ho        1 MOL      0.416365
    177 O24         1.1330   -1.5060   -1.5510 oh        1 MOL     -0.831072
    178 H84         0.2250   -1.4210   -1.8370 ho        1 MOL      0.416365
    179 H85         1.6290   -1.7140   -2.3430 ho        1 MOL      0.416365
    180 O25         0.5970    1.4500   -1.5810 oh        1 MOL     -0.831072
    181 H86         0.7570    1.8770   -2.4130 ho        1 MOL      0.416365
    182 H87        -0.3550    1.4200   -1.5030 ho        1 MOL      0.416365
@<TRIPOS>BOND
     1    1    2 1   
     2    1    4 1   
     3    1    5 1   
     4    1    6 1   
     5    2    3 2   
     6    2    7 1   
     7    7    8 1   
     8    7   15 1   
     9    8    9 1   
    10    8   11 1   
    11    8   16 1   
    12    9   10 2   
    13    9   19 1   
    14   11   12 1   
    15   11   17 1   
    16   11   18 1   
    17   12   13 1   
    18   12   14 1   
    19   19   20 1   
    20   19   28 1   
    21   20   21 1   
    22   20   23 1   
    23   20   29 1   
    24   21   22 2   
    25   21   41 1   
    26   23   24 1   
    27   23   30 1   
    28   23   31 1   
    29   24   25 1   
    30   24   32 1   
    31   24   33 1   
    32   25   26 1   
    33   25   34 1   
    34   25   35 1   
    35   26   27 1   
    36   26   36 1   
    37   26   37 1   
    38   27   38 1   
    39   27   39 1   
    40   27   40 1   
    41   41   42 1   
    42   41   49 1   
    43   42   43 1   
    44   42   45 1   
    45   42   50 1   
    46   43   44 2   
    47   43   53 1   
    48   45   46 1   
    49   45   51 1   
    50   45   52 1   
    51   46   47 1   
    52   46   48 1   
    53   53   54 1   
    54   53   57 1   
    55   54   55 1   
    56   54   58 1   
    57   54   59 1   
    58   55   56 2   
    59   55   60 1   
    60   60   61 1   
    61   60   68 1   
    62   61   62 1   
    63   61   64 1   
    64   61   69 1   
    65   62   63 2   
    66   62   74 1   
    67   64   65 1   
    68   64   70 1   
    69   64   71 1   
    70   65   66 1   
    71   65   67 2   
    72   66   72 1   
    73   66   73 1   
    74   74   75 1   
    75   74   78 1   
    76   75   76 1   
    77   75   79 1   
    78   75   80 1   
    79   76   77 2   
    80   76   81 1   
    81   81   82 1   
    82   81   93 1   
    83   82   83 1   
    84   82   85 1   
    85   82   94 1   
    86   83   84 2   
    87   83  102 1   
    88   85   86 1   
    89   85   95 1   
    90   85   96 1   
    91   86   87 ar  
    92   86   88 ar  
    93   87   89 ar  
    94   87   97 1   
    95   88   90 ar  
    96   88   98 1   
    97   89   91 ar  
    98   89   99 1   
    99   90   91 ar  
   100   90  100 1   
   101   91   92 1   
   102   92  101 1   
   103  102  103 1   
   104  102  110 1   
   105  103  104 1   
   106  103  106 1   
   107  103  111 1   
   108  104  105 2   
   109  104  121 1   
   110  106  107 1   
   111  106  108 1   
   112  106  112 1   
   113  107  109 1   
   114  107  113 1   
   115  107  114 1   
   116  108  115 1   
   117  108  116 1   
   118  108  117 1   
   119  109  118 1   
   120  109  119 1   
   121  109  120 1   
   122  121  122 1   
   123  121  127 1   
   124  122  123 1   
   125  122  125 1   
   126  122  128 1   
   127  123  124 2   
   128  123  132 1   
   129  125  126 1   
   130  125  129 1   
   131  125  130 1   
   132  126  131 1   
   133  132  133 1   
   134  132  137 1   
   135  133  134 1   
   136  133  136 1   
   137  133  138 1   
   138  134  135 2   
   139  134  142 1   
   140  136  139 1   
   141  136  140 1   
   142  136  141 1   
   143  142  143 1   
   144  142  147 1   
   145  143  144 1   
   146  143  146 1   
   147  143  148 1   
   148  144  145 2   
   149  144  152 1   
   150  146  149 1   
   151  146  150 1   
   152  146  151 1   
   153  152  153 1   
   154  152  161 1   
   155  153  154 1   
   156  153  156 1   
   157  153  162 1   
   158  154  155 2   
   159  154  167 1   
   160  156  157 1   
   161  156  163 1   
   162  156  164 1   
   163  157  158 1   
   164  157  165 1   
   165  157  166 1   
   166  158  159 1   
   167  158  160 1   
   168  167  168 1   
   169  167  172 1   
   170  168  169 1   
   171  168  170 1   
   172  168  171 1   
   173  174  175 1   
   174  174  176 1   
   175  177  178 1   
   176  177  179 1   
   177  180  181 1   
   178  180  182 1   
@<TRIPOS>SUBSTRUCTURE
     1 MOL         1 TEMP              0 ****  ****    0 ROOT
