@<TRIPOS>MOLECULE
MOL
  181   177     1     0     0
SMALL
resp


@<TRIPOS>ATOM
      1 C1          4.8460   -1.7630    3.9160 c3        1 MOL     -0.550755
      2 C2          6.1480   -1.0900    3.3810 c         1 MOL      0.682340
      3 O1          6.2170    0.0530    2.9300 o         1 MOL     -0.599629
      4 H1          4.5120   -1.2430    4.8140 hc        1 MOL      0.149229
      5 H2          4.0690   -1.7090    3.1540 hc        1 MOL      0.149229
      6 H3          5.0480   -2.8070    4.1560 hc        1 MOL      0.149229
      7 N1          7.2360   -1.8510    3.2540 n         1 MOL     -0.487959
      8 C3          8.4730   -1.3100    2.7090 c3        1 MOL      0.069011
      9 C4          8.5820   -1.3910    1.1720 c         1 MOL      0.431290
     10 O2          8.4480   -2.4680    0.5780 o         1 MOL     -0.488941
     11 C5          9.6550   -1.9520    3.4070 c3        1 MOL     -0.176271
     12 C6         11.0220   -1.3120    3.0620 c         1 MOL      0.676545
     13 O3         11.4150   -0.3170    3.6810 o         1 MOL     -0.721135
     14 O4         11.6950   -1.8680    2.1580 o         1 MOL     -0.721135
     15 H4          7.1800   -2.8440    3.4250 hn        1 MOL      0.289699
     16 H5          8.4190   -0.2440    2.9370 h1        1 MOL      0.065332
     17 H6          9.6860   -3.0140    3.1560 hc        1 MOL      0.024961
     18 H7          9.4230   -1.8950    4.4720 hc        1 MOL      0.024961
     19 N2          8.8740   -0.2570    0.5080 n         1 MOL     -0.320763
     20 C7          8.8480   -0.0540   -0.9770 c3        1 MOL      0.146008
     21 C8          7.4850   -0.4620   -1.5680 c         1 MOL      0.355648
     22 O5          7.4290   -1.0590   -2.6320 o         1 MOL     -0.485769
     23 C9          9.1260    1.4190   -1.3320 c3        1 MOL     -0.245790
     24 H8          9.1060    0.5470    1.0680 hn        1 MOL      0.242068
     25 H9          9.6350   -0.6820   -1.4060 h1        1 MOL      0.084392
     26 H10         9.5680    1.3800   -2.3380 hc        1 MOL      0.065664
     27 H11         8.2260    2.0260   -1.4140 hc        1 MOL      0.065664
     28 H12         9.7600    1.9630   -0.6420 hc        1 MOL      0.065664
     29 N3          6.3660   -0.1060   -0.9470 n         1 MOL     -0.328810
     30 C10         4.9360   -0.5140   -1.2200 c3        1 MOL      0.063502
     31 C11         4.6760   -0.2530   -2.7190 c         1 MOL      0.445720
     32 O6          4.3730   -1.1590   -3.5160 o         1 MOL     -0.520979
     33 C12         4.6310   -1.9120   -0.6490 c3        1 MOL     -0.093810
     34 C13         3.2410   -2.3490   -0.8940 c         1 MOL      0.724564
     35 O7          2.3090   -1.5330   -1.1440 o         1 MOL     -0.774757
     36 O8          2.9680   -3.5910   -0.9240 o         1 MOL     -0.774757
     37 H13         6.5530    0.4340   -0.1200 hn        1 MOL      0.209647
     38 H14         4.2870    0.1010   -0.5910 h1        1 MOL      0.074169
     39 H15         4.8790   -1.8220    0.4150 hc        1 MOL      0.073473
     40 H16         5.3440   -2.6540   -0.9990 hc        1 MOL      0.073473
     41 N4          4.6890    1.0410   -3.1870 n         1 MOL     -0.176855
     42 C14         4.2930    1.4920   -4.4660 c3        1 MOL     -0.230060
     43 C15         2.8610    2.0190   -4.5150 c         1 MOL      0.497813
     44 O9          2.4180    2.3420   -5.6090 o         1 MOL     -0.578844
     45 H17         5.0680    1.7410   -2.5650 hn        1 MOL      0.187533
     46 H18         4.2140    0.6280   -5.1360 h1        1 MOL      0.122064
     47 H19         5.0010    2.2030   -4.9020 h1        1 MOL      0.122064
     48 N5          2.1600    2.0150   -3.4140 n         1 MOL     -0.206935
     49 C16         0.7450    2.3820   -3.4550 c3        1 MOL     -0.002645
     50 C17         0.4860    3.6690   -2.6380 c         1 MOL      0.411975
     51 O10         1.2260    4.0350   -1.7350 o         1 MOL     -0.487193
     52 C18        -0.0280    1.1730   -2.8900 c3        1 MOL      0.211911
     53 C19        -1.4640    1.0860   -3.2880 c         1 MOL      0.476298
     54 N6         -2.2990    0.3170   -2.6070 n         1 MOL     -0.656790
     55 O11        -1.8470    1.7890   -4.2000 o         1 MOL     -0.577356
     56 H20         2.5990    1.8070   -2.5330 hn        1 MOL      0.142219
     57 H21         0.4210    2.4880   -4.4850 h1        1 MOL      0.037864
     58 H22         0.0360    1.2310   -1.8030 hc        1 MOL     -0.004268
     59 H23         0.4510    0.2490   -3.2220 hc        1 MOL     -0.004268
     60 H24        -1.9190   -0.3450   -1.9550 hn        1 MOL      0.311478
     61 H25        -3.2030    0.1850   -3.0360 hn        1 MOL      0.311478
     62 N7         -0.3960    4.5520   -3.1490 n         1 MOL     -0.273452
     63 C20        -0.4950    5.9890   -2.8420 c3        1 MOL     -0.141259
     64 C21        -1.3820    6.3070   -1.7220 c         1 MOL      0.557722
     65 O12        -2.5460    6.0170   -1.8330 o         1 MOL     -0.520121
     66 H26        -1.0070    4.2960   -3.9190 hn        1 MOL      0.276535
     67 H27        -0.9090    6.5590   -3.6760 h1        1 MOL      0.072701
     68 H28         0.4490    6.4450   -2.5370 h1        1 MOL      0.072701
     69 N8         -0.9180    6.7070   -0.5050 n         1 MOL     -0.424784
     70 C22        -1.7380    6.9610    0.6750 c3        1 MOL     -0.016433
     71 C23        -1.8250    5.9150    1.7620 c         1 MOL      0.442357
     72 O13        -2.7050    5.9230    2.5730 o         1 MOL     -0.561517
     73 C24        -1.4190    8.2780    1.4070 c3        1 MOL      0.481449
     74 C25        -0.2550    8.1500    2.4160 c3        1 MOL     -0.327202
     75 O14        -1.0660    9.2950    0.4710 oh        1 MOL     -0.683114
     76 H29         0.0210    7.0690   -0.4920 hn        1 MOL      0.257559
     77 H30        -2.7700    7.1250    0.3620 h1        1 MOL      0.084664
     78 H31        -2.3210    8.5710    1.9520 h1        1 MOL      0.013566
     79 H32        -0.1370    9.3100    0.2400 ho        1 MOL      0.394475
     80 H33         0.0300    9.1460    2.7710 hc        1 MOL      0.062560
     81 H34        -0.5260    7.5620    3.2910 hc        1 MOL      0.062560
     82 H35         0.6150    7.6400    1.9920 hc        1 MOL      0.062560
     83 N9         -0.9090    4.9180    1.7000 n         1 MOL     -0.023792
     84 C26        -1.0500    3.6920    2.4770 c3        1 MOL     -0.317220
     85 C27        -1.0220    2.4740    1.5920 c         1 MOL      0.435982
     86 O15        -0.2440    2.5310    0.5990 o         1 MOL     -0.444722
     87 C28        -0.1280    3.5160    3.7610 c3        1 MOL      0.069272
     88 C29         1.3560    3.2220    3.4040 c3        1 MOL      0.093150
     89 C30        -0.3370    4.7550    4.7010 c3        1 MOL     -0.207125
     90 C31         2.2380    2.9200    4.6350 c3        1 MOL     -0.365408
     91 H36        -0.1750    4.9100    1.0170 hn        1 MOL      0.149096
     92 H37        -2.0620    3.6940    2.8830 h1        1 MOL      0.144743
     93 H38        -0.5710    2.6610    4.2840 hc        1 MOL      0.021798
     94 H39         1.7900    4.0530    2.8490 hc        1 MOL      0.031085
     95 H40         1.3680    2.3420    2.7690 hc        1 MOL      0.031085
     96 H41         0.0790    5.6120    4.1630 hc        1 MOL      0.054904
     97 H42        -1.3840    4.9860    4.8710 hc        1 MOL      0.054904
     98 H43         0.2750    4.5950    5.5900 hc        1 MOL      0.054904
     99 H44         3.0300    2.3460    4.1700 hc        1 MOL      0.094717
    100 H45         2.7610    3.7650    5.0830 hc        1 MOL      0.094717
    101 H46         1.7020    2.2780    5.3350 hc        1 MOL      0.094717
    102 N10        -1.8770    1.5020    1.7940 n         1 MOL     -0.401357
    103 C32        -1.8470    0.3260    0.9060 c3        1 MOL      0.146965
    104 C33        -3.2450   -0.2170    0.6640 c         1 MOL      0.672599
    105 O16        -3.3920   -1.3920    0.4480 o         1 MOL     -0.640870
    106 C34        -0.8140   -0.7110    1.3360 c3        1 MOL     -0.431200
    107 C35        -0.4940   -1.7300    0.2620 c         1 MOL      0.875520
    108 O17        -0.7250   -1.4720   -0.9590 o         1 MOL     -0.723289
    109 O18         0.0850   -2.8140    0.5540 o         1 MOL     -0.723289
    110 H47        -2.4450    1.5360    2.6290 hn        1 MOL      0.275436
    111 H48        -1.5200    0.6710   -0.0680 h1        1 MOL      0.004732
    112 H49        -1.1230   -1.1950    2.2640 hc        1 MOL      0.142193
    113 H50         0.0960   -0.1290    1.5160 hc        1 MOL      0.142193
    114 N11        -4.2660    0.6150    0.8040 n         1 MOL     -0.661882
    115 C36        -5.6190    0.2710    0.3880 c3        1 MOL      0.484232
    116 C37        -6.1740   -0.9490    1.1380 c         1 MOL      0.194502
    117 O19        -6.0010   -1.0050    2.3810 o         1 MOL     -0.496996
    118 C38        -6.5520    1.4090    0.4740 c3        1 MOL     -0.116017
    119 C39        -7.8790    1.1980   -0.2740 ca        1 MOL      0.011089
    120 C40        -8.1590    1.7030   -1.5740 ca        1 MOL     -0.128752
    121 C41        -8.8000    0.3420    0.2890 ca        1 MOL     -0.128752
    122 C42        -9.3780    1.4190   -2.2070 ca        1 MOL     -0.129230
    123 C43        -9.9550   -0.0800   -0.3650 ca        1 MOL     -0.129230
    124 C44       -10.2720    0.5600   -1.5840 ca        1 MOL     -0.093071
    125 H51        -4.0540    1.5170    1.2070 hn        1 MOL      0.285119
    126 H52        -5.5490    0.1990   -0.6980 h1        1 MOL     -0.038669
    127 H53        -6.0350    2.3260    0.1620 hc        1 MOL      0.056457
    128 H54        -6.7870    1.6420    1.5190 hc        1 MOL      0.056457
    129 H55        -7.4580    2.3920   -2.0070 ha        1 MOL      0.109969
    130 H56        -8.5660   -0.0600    1.2700 ha        1 MOL      0.109969
    131 H57        -9.6350    1.9080   -3.1290 ha        1 MOL      0.117060
    132 H58       -10.6020   -0.8260    0.0650 ha        1 MOL      0.117060
    133 H59       -11.1610    0.3490   -2.1640 ha        1 MOL      0.091555
    134 N12        -6.7710   -2.0020    0.4460 n         1 MOL     -0.014600
    135 C45        -7.3260   -3.2630    0.9490 c3        1 MOL      0.125386
    136 C46        -6.3590   -3.9350    1.9280 c         1 MOL      0.229368
    137 O20        -6.7220   -4.5800    2.9050 o         1 MOL     -0.498341
    138 C47        -7.5280   -4.1510   -0.1920 c3        1 MOL      0.054544
    139 C48        -7.6660   -3.2210   -1.4300 c3        1 MOL     -0.214877
    140 C49        -6.6350   -2.1370   -1.0490 c3        1 MOL      0.013975
    141 H60        -8.3040   -3.0640    1.4040 h1        1 MOL      0.020939
    142 H61        -6.6600   -4.7760   -0.3950 hc        1 MOL      0.013610
    143 H62        -8.3960   -4.7930   -0.0260 hc        1 MOL      0.013610
    144 H63        -7.3900   -3.7020   -2.3650 hc        1 MOL      0.061357
    145 H64        -8.6530   -2.7640   -1.4330 hc        1 MOL      0.061357
    146 H65        -5.6470   -2.5000   -1.3190 h1        1 MOL      0.044980
    147 H66        -6.9010   -1.2350   -1.6040 h1        1 MOL      0.044980
    148 N13        -5.0590   -3.7100    1.6550 n         1 MOL     -0.164624
    149 C50        -4.0120   -4.3480    2.4180 c3        1 MOL     -0.139986
    150 C51        -3.6890   -3.6030    3.7290 c         1 MOL      0.482553
    151 O21        -3.2060   -4.3300    4.6450 o         1 MOL     -0.567046
    152 C52        -2.8000   -4.6460    1.4660 c3        1 MOL      0.035339
    153 C53        -3.1830   -5.3150    0.0780 c3        1 MOL     -0.160711
    154 C54        -2.0110   -5.4780   -0.8290 c         1 MOL      0.719221
    155 O22        -1.6630   -4.4420   -1.5010 o         1 MOL     -0.725498
    156 O23        -1.4500   -6.6080   -1.0570 o         1 MOL     -0.725498
    157 H67        -4.8480   -3.2220    0.7890 hn        1 MOL      0.316823
    158 H68        -4.3860   -5.3280    2.7190 h1        1 MOL      0.122644
    159 H69        -2.1850   -5.3760    1.9940 hc        1 MOL      0.022859
    160 H70        -2.2460   -3.7490    1.2050 hc        1 MOL      0.022859
    161 H71        -3.8370   -4.6790   -0.5200 hc        1 MOL      0.025101
    162 H72        -3.6430   -6.2990    0.1820 hc        1 MOL      0.025101
    163 N14        -3.9610   -2.3290    3.9630 n         1 MOL     -0.157778
    164 C55        -3.5130   -1.5790    5.1590 c3        1 MOL     -0.239205
    165 H73        -3.6580   -2.1930    6.0480 h1        1 MOL      0.094490
    166 H74        -2.4560   -1.3320    5.0580 h1        1 MOL      0.094490
    167 H75        -4.0940   -0.6610    5.2510 h1        1 MOL      0.094490
    168 H76        -4.4590   -1.8150    3.2580 hn        1 MOL      0.220333
    169 Ca1         0.5960   -3.4440   -1.9970 Ca        1 MOL      1.664207
    170 O24         0.8620   -5.2470   -4.2320 oh        1 MOL     -0.766219
    171 H77         1.7790   -5.5060   -4.2470 ho        1 MOL      0.377486
    172 H78         0.6270   -5.1260   -5.1540 ho        1 MOL      0.377486
    173 O25        -0.9110   -2.4150   -4.0830 oh        1 MOL     -0.766219
    174 H79        -1.6980   -1.9850   -3.7410 ho        1 MOL      0.377486
    175 H80        -0.5370   -1.7770   -4.6880 ho        1 MOL      0.377486
    176 O26         2.2210   -2.4690   -3.9500 oh        1 MOL     -0.766219
    177 H81         2.6660   -3.0380   -4.5790 ho        1 MOL      0.377486
    178 H82         2.8700   -1.8160   -3.7050 ho        1 MOL      0.377486
    179 O27         1.1770   -5.9520   -1.0980 oh        1 MOL     -0.766219
    180 H83         0.2370   -6.1270   -1.1390 ho        1 MOL      0.377486
    181 H84         1.5480   -6.7730   -0.7610 ho        1 MOL      0.377486
@<TRIPOS>BOND
     1    1    2 1   
     2    1    4 1   
     3    1    5 1   
     4    1    6 1   
     5    2    3 2   
     6    2    7 1   
     7    7    8 1   
     8    7   15 1   
     9    8    9 1   
    10    8   11 1   
    11    8   16 1   
    12    9   10 2   
    13    9   19 1   
    14   11   12 1   
    15   11   17 1   
    16   11   18 1   
    17   12   13 1   
    18   12   14 1   
    19   19   20 1   
    20   19   24 1   
    21   20   21 1   
    22   20   23 1   
    23   20   25 1   
    24   21   22 2   
    25   21   29 1   
    26   23   26 1   
    27   23   27 1   
    28   23   28 1   
    29   29   30 1   
    30   29   37 1   
    31   30   31 1   
    32   30   33 1   
    33   30   38 1   
    34   31   32 2   
    35   31   41 1   
    36   33   34 1   
    37   33   39 1   
    38   33   40 1   
    39   34   35 1   
    40   34   36 1   
    41   41   42 1   
    42   41   45 1   
    43   42   43 1   
    44   42   46 1   
    45   42   47 1   
    46   43   44 2   
    47   43   48 1   
    48   48   49 1   
    49   48   56 1   
    50   49   50 1   
    51   49   52 1   
    52   49   57 1   
    53   50   51 2   
    54   50   62 1   
    55   52   53 1   
    56   52   58 1   
    57   52   59 1   
    58   53   54 1   
    59   53   55 2   
    60   54   60 1   
    61   54   61 1   
    62   62   63 1   
    63   62   66 1   
    64   63   64 1   
    65   63   67 1   
    66   63   68 1   
    67   64   65 2   
    68   64   69 1   
    69   69   70 1   
    70   69   76 1   
    71   70   71 1   
    72   70   73 1   
    73   70   77 1   
    74   71   72 2   
    75   71   83 1   
    76   73   74 1   
    77   73   75 1   
    78   73   78 1   
    79   74   80 1   
    80   74   81 1   
    81   74   82 1   
    82   75   79 1   
    83   83   84 1   
    84   83   91 1   
    85   84   85 1   
    86   84   87 1   
    87   84   92 1   
    88   85   86 2   
    89   85  102 1   
    90   87   88 1   
    91   87   89 1   
    92   87   93 1   
    93   88   90 1   
    94   88   94 1   
    95   88   95 1   
    96   89   96 1   
    97   89   97 1   
    98   89   98 1   
    99   90   99 1   
   100   90  100 1   
   101   90  101 1   
   102  102  103 1   
   103  102  110 1   
   104  103  104 1   
   105  103  106 1   
   106  103  111 1   
   107  104  105 2   
   108  104  114 1   
   109  106  107 1   
   110  106  112 1   
   111  106  113 1   
   112  107  108 1   
   113  107  109 1   
   114  114  115 1   
   115  114  125 1   
   116  115  116 1   
   117  115  118 1   
   118  115  126 1   
   119  116  117 2   
   120  116  134 1   
   121  118  119 1   
   122  118  127 1   
   123  118  128 1   
   124  119  120 ar  
   125  119  121 ar  
   126  120  122 ar  
   127  120  129 1   
   128  121  123 ar  
   129  121  130 1   
   130  122  124 ar  
   131  122  131 1   
   132  123  124 ar  
   133  123  132 1   
   134  124  133 1   
   135  134  135 1   
   136  134  140 1   
   137  135  136 1   
   138  135  138 1   
   139  135  141 1   
   140  136  137 2   
   141  136  148 1   
   142  138  139 1   
   143  138  142 1   
   144  138  143 1   
   145  139  140 1   
   146  139  144 1   
   147  139  145 1   
   148  140  146 1   
   149  140  147 1   
   150  148  149 1   
   151  148  157 1   
   152  149  150 1   
   153  149  152 1   
   154  149  158 1   
   155  150  151 2   
   156  150  163 1   
   157  152  153 1   
   158  152  159 1   
   159  152  160 1   
   160  153  154 1   
   161  153  161 1   
   162  153  162 1   
   163  154  155 1   
   164  154  156 1   
   165  163  164 1   
   166  163  168 1   
   167  164  165 1   
   168  164  166 1   
   169  164  167 1   
   170  170  171 1   
   171  170  172 1   
   172  173  174 1   
   173  173  175 1   
   174  176  177 1   
   175  176  178 1   
   176  179  180 1   
   177  179  181 1   
@<TRIPOS>SUBSTRUCTURE
     1 MOL         1 TEMP              0 ****  ****    0 ROOT
