@<TRIPOS>MOLECULE
MOL
  181   177     1     0     0
SMALL
resp


@<TRIPOS>ATOM
      1 C1          8.0490   -4.9760    4.9240 c3        1 MOL     -0.353027
      2 C2          7.2800   -3.8100    4.2460 c         1 MOL      0.739193
      3 O1          6.6370   -3.0260    4.9290 o         1 MOL     -0.566779
      4 H1          7.9720   -4.8790    6.0070 hc        1 MOL      0.081558
      5 H2          7.6160   -5.9270    4.6130 hc        1 MOL      0.081558
      6 H3          9.0980   -4.9390    4.6300 hc        1 MOL      0.081558
      7 N1          7.3790   -3.6280    2.9470 n         1 MOL     -0.780561
      8 C3          8.4720   -4.1380    2.0980 c3        1 MOL      0.494810
      9 C4          7.8830   -4.7730    0.8260 c         1 MOL      0.474941
     10 O2          6.7470   -5.2780    0.8740 o         1 MOL     -0.509370
     11 C5          9.5160   -3.0990    1.7290 c3        1 MOL     -0.012664
     12 C6          8.9380   -1.7990    1.1270 c         1 MOL      0.676486
     13 O3          8.9260   -1.5570   -0.0800 o         1 MOL     -0.769306
     14 O4          8.4240   -0.9270    1.8970 o         1 MOL     -0.769306
     15 H4          6.7410   -2.9680    2.5290 hn        1 MOL      0.431468
     16 H5          9.0350   -4.9920    2.4750 h1        1 MOL     -0.069919
     17 H6         10.3090   -3.5390    1.1250 hc        1 MOL     -0.040903
     18 H7         10.0470   -2.8570    2.6420 hc        1 MOL     -0.040903
     19 N2          8.5440   -4.8710   -0.3580 n         1 MOL     -0.614879
     20 C7          8.0580   -5.3950   -1.6530 c3        1 MOL      0.511111
     21 C8          6.8470   -4.6760   -2.2340 c         1 MOL      0.273847
     22 O5          6.1990   -5.1800   -3.1380 o         1 MOL     -0.528783
     23 C9          7.9700   -6.8870   -1.6160 c3        1 MOL     -0.414563
     24 H8          9.5500   -4.7510   -0.3220 hn        1 MOL      0.278737
     25 H9          8.9140   -5.1480   -2.2740 h1        1 MOL     -0.014406
     26 H10         8.3530   -7.2000   -2.5830 hc        1 MOL      0.101218
     27 H11         8.6250   -7.3000   -0.8380 hc        1 MOL      0.101218
     28 H12         6.9580   -7.2750   -1.4590 hc        1 MOL      0.101218
     29 N3          6.4840   -3.5220   -1.6750 n         1 MOL     -0.245377
     30 C10         5.2460   -2.7060   -2.0000 c3        1 MOL      0.448562
     31 C11         5.6220   -1.2740   -2.4020 c         1 MOL      0.186865
     32 O6          6.7980   -0.8520   -2.3200 o         1 MOL     -0.458095
     33 C12         4.2830   -2.7650   -0.8140 c3        1 MOL     -0.478253
     34 C13         4.7320   -2.0090    0.4050 c         1 MOL      0.719607
     35 O7          5.4930   -1.0200    0.4250 o         1 MOL     -0.652433
     36 O8          4.1210   -2.4010    1.4740 o         1 MOL     -0.652433
     37 H13         7.0940   -3.2150   -0.9270 hn        1 MOL      0.065381
     38 H14         4.7130   -3.1700   -2.8250 h1        1 MOL     -0.004570
     39 H15         4.2010   -3.8090   -0.5400 hc        1 MOL      0.153510
     40 H16         3.3350   -2.3610   -1.1740 hc        1 MOL      0.153510
     41 N4          4.6220   -0.4690   -2.8960 n         1 MOL     -0.260941
     42 C14         4.7300    0.7990   -3.5300 c3        1 MOL     -0.312876
     43 C15         4.7620    2.0620   -2.6130 c         1 MOL      0.787855
     44 O9          5.1220    1.8870   -1.4590 o         1 MOL     -0.587868
     45 H17         3.6780   -0.8260   -2.8730 hn        1 MOL      0.290110
     46 H18         3.8930    0.9560   -4.2150 h1        1 MOL      0.133754
     47 H19         5.6210    0.7440   -4.1550 h1        1 MOL      0.133754
     48 N5          4.3820    3.2670   -3.0920 n         1 MOL     -0.637848
     49 C16         4.3480    4.4690   -2.2040 c3        1 MOL      0.161649
     50 C17         3.0030    4.6990   -1.4660 c         1 MOL      0.604302
     51 O10         1.9570    4.4330   -2.0080 o         1 MOL     -0.478342
     52 C18         4.5270    5.6870   -3.0580 c3        1 MOL     -0.292026
     53 C19         5.9220    5.7160   -3.5820 c         1 MOL      0.736187
     54 N6          6.0630    5.5720   -4.8830 n         1 MOL     -0.855456
     55 O11         6.8710    5.7790   -2.8220 o         1 MOL     -0.601819
     56 H20         4.2830    3.3780   -4.0900 hn        1 MOL      0.306756
     57 H21         5.1660    4.4700   -1.4860 h1        1 MOL      0.063907
     58 H22         4.4940    6.6070   -2.4680 hc        1 MOL      0.088663
     59 H23         3.8400    5.7610   -3.8970 hc        1 MOL      0.088663
     60 H24         5.2410    5.5640   -5.4710 hn        1 MOL      0.382312
     61 H25         7.0140    5.6080   -5.2420 hn        1 MOL      0.382312
     62 N7          3.0820    5.2330   -0.2390 n         1 MOL     -0.569307
     63 C20         1.9670    5.4050    0.6630 c3        1 MOL      0.072122
     64 C21         0.7260    6.0230    0.0450 c         1 MOL      0.703038
     65 O12         0.8230    6.7340   -0.9170 o         1 MOL     -0.585387
     66 H26         3.9920    5.5510    0.0640 hn        1 MOL      0.312567
     67 H27         2.3170    6.0610    1.4580 h1        1 MOL      0.041057
     68 H28         1.7000    4.4180    1.0440 h1        1 MOL      0.041057
     69 N8         -0.4280    5.9350    0.6530 n         1 MOL     -0.532225
     70 C22        -0.7800    5.2200    1.9190 c3        1 MOL     -0.198359
     71 C23        -1.7850    4.0960    1.6390 c         1 MOL      0.726636
     72 O13        -2.3970    4.0140    0.5820 o         1 MOL     -0.496601
     73 C24        -1.2710    6.2960    2.9740 c3        1 MOL      0.509834
     74 C25        -0.1260    7.0270    3.5900 c3        1 MOL     -0.274719
     75 O14        -2.1150    7.2330    2.4210 oh        1 MOL     -0.619340
     76 H29        -1.2010    6.1970    0.0600 hn        1 MOL      0.330876
     77 H30         0.0890    4.8070    2.4260 h1        1 MOL      0.039143
     78 H31        -1.8570    5.8410    3.7730 h1        1 MOL     -0.038334
     79 H32        -2.9970    6.8500    2.4380 ho        1 MOL      0.405070
     80 H33        -0.5020    7.7760    4.2940 hc        1 MOL      0.059361
     81 H34         0.4860    6.3670    4.2000 hc        1 MOL      0.059361
     82 H35         0.4820    7.5600    2.8600 hc        1 MOL      0.059361
     83 N9         -1.8990    3.0880    2.5910 n         1 MOL     -0.544263
     84 C26        -2.7580    1.9230    2.5240 c3        1 MOL     -0.416820
     85 C27        -4.1810    2.4430    3.0040 c         1 MOL      0.632816
     86 O15        -4.3710    2.8390    4.1840 o         1 MOL     -0.597428
     87 C28        -2.3120    0.8400    3.4050 c3        1 MOL      0.221594
     88 C29        -0.9380    0.3180    2.9640 c3        1 MOL      0.010604
     89 C30        -3.2770   -0.3140    3.2590 c3        1 MOL     -0.152794
     90 C31        -0.2090   -0.3460    4.0980 c3        1 MOL     -0.380315
     91 H36        -1.2380    3.1150    3.3560 hn        1 MOL      0.304633
     92 H37        -2.8650    1.6980    1.4650 h1        1 MOL      0.198387
     93 H38        -2.3400    1.2130    4.4300 hc        1 MOL      0.011362
     94 H39        -0.2820    1.1630    2.7390 hc        1 MOL      0.063026
     95 H40        -1.0090   -0.3800    2.1320 hc        1 MOL      0.063026
     96 H41        -3.3600   -0.5570    2.2050 hc        1 MOL      0.036725
     97 H42        -2.8640   -1.1620    3.8160 hc        1 MOL      0.036725
     98 H43        -4.2500   -0.1150    3.7010 hc        1 MOL      0.036725
     99 H44         0.8070   -0.5420    3.7630 hc        1 MOL      0.089878
    100 H45        -0.2440    0.1990    5.0370 hc        1 MOL      0.089878
    101 H46        -0.7220   -1.2970    4.2010 hc        1 MOL      0.089878
    102 N10        -5.2380    2.3310    2.2180 n         1 MOL     -0.420910
    103 C32        -5.4660    1.9930    0.8020 c3        1 MOL      0.128724
    104 C33        -6.6850    1.0680    0.6520 c         1 MOL      0.456241
    105 O16        -7.3840    0.9170    1.6760 o         1 MOL     -0.529165
    106 C34        -5.6360    3.2240   -0.0450 c3        1 MOL     -0.110473
    107 C35        -6.7490    4.0110    0.4500 c         1 MOL      0.728114
    108 O17        -7.8880    3.8700   -0.0510 o         1 MOL     -0.719763
    109 O18        -6.5290    4.9010    1.3290 o         1 MOL     -0.719763
    110 H47        -6.1180    2.4340    2.7100 hn        1 MOL      0.299794
    111 H48        -4.6290    1.4930    0.3080 h1        1 MOL      0.046672
    112 H49        -5.7970    2.9470   -1.0780 hc        1 MOL      0.002976
    113 H50        -4.7460    3.8400    0.0520 hc        1 MOL      0.002976
    114 N11        -6.9200    0.5090   -0.5320 n         1 MOL     -0.373924
    115 C36        -8.0730   -0.3230   -0.7970 c3        1 MOL      0.129747
    116 C37        -7.9880   -0.9390   -2.1380 c         1 MOL      0.204239
    117 O19        -7.7910   -0.2040   -3.1000 o         1 MOL     -0.476201
    118 C38        -9.3380    0.5950   -0.7690 c3        1 MOL     -0.342998
    119 C39       -10.6460   -0.1060   -0.7670 ca        1 MOL      0.271956
    120 C40       -11.3270   -0.2970   -1.9600 ca        1 MOL     -0.271802
    121 C41       -11.1880   -0.5970    0.4110 ca        1 MOL     -0.271802
    122 C42       -12.5030   -1.0320   -1.9830 ca        1 MOL     -0.037606
    123 C43       -12.4630   -1.1930    0.4140 ca        1 MOL     -0.037606
    124 C44       -13.0670   -1.4230   -0.7980 ca        1 MOL     -0.180208
    125 H51        -6.1760    0.6190   -1.2160 hn        1 MOL      0.313058
    126 H52        -8.2090   -1.0150    0.0380 h1        1 MOL      0.053820
    127 H53        -9.2020    1.3220   -1.5570 hc        1 MOL      0.150380
    128 H54        -9.2550    1.0260    0.2240 hc        1 MOL      0.150380
    129 H55       -10.8920   -0.0290   -2.9100 ha        1 MOL      0.155163
    130 H56       -10.6950   -0.3680    1.3420 ha        1 MOL      0.155163
    131 H57       -13.0580   -1.2040   -2.8980 ha        1 MOL      0.081137
    132 H58       -12.8770   -1.4580    1.3770 ha        1 MOL      0.081137
    133 H59       -14.0740   -1.8090   -0.8080 ha        1 MOL      0.079999
    134 N12        -8.3710   -2.2230   -2.3020 n         1 MOL      0.129303
    135 C45        -8.7870   -3.1920   -1.2550 c3        1 MOL      0.093533
    136 C46        -7.6810   -3.5770   -0.1730 c         1 MOL      0.363543
    137 O20        -7.9320   -3.5630    1.0080 o         1 MOL     -0.526872
    138 C47        -9.1930   -4.3810   -2.1090 c3        1 MOL     -0.038803
    139 C48        -9.5910   -3.8140   -3.4310 c3        1 MOL     -0.067284
    140 C49        -8.4830   -2.8480   -3.6320 c3        1 MOL     -0.262036
    141 H60        -9.6490   -2.7950   -0.7310 h1        1 MOL      0.029952
    142 H61        -8.3780   -5.0940   -2.2400 hc        1 MOL      0.020646
    143 H62       -10.0480   -4.8950   -1.6740 hc        1 MOL      0.020646
    144 H63        -9.4700   -4.5250   -4.2540 hc        1 MOL      0.029377
    145 H64       -10.5730   -3.3340   -3.3830 hc        1 MOL      0.029377
    146 H65        -7.6110   -3.4630   -3.8370 h1        1 MOL      0.126031
    147 H66        -8.7550   -2.1050   -4.3920 h1        1 MOL      0.126031
    148 N13        -6.4190   -3.7750   -0.6090 n         1 MOL     -0.170984
    149 C50        -5.3660   -4.0950    0.3440 c3        1 MOL      0.092146
    150 C51        -5.2900   -5.6200    0.5050 c         1 MOL      0.313204
    151 O21        -5.1960   -6.3150   -0.5230 o         1 MOL     -0.580674
    152 C52        -3.9200   -3.7010   -0.1920 c3        1 MOL     -0.056797
    153 C53        -3.5160   -2.2200   -0.1930 c3        1 MOL     -0.144128
    154 C54        -2.7490   -1.7760   -1.4140 c         1 MOL      0.665193
    155 O22        -1.4990   -1.7700   -1.4280 o         1 MOL     -0.697926
    156 O23        -3.4060   -1.5120   -2.4610 o         1 MOL     -0.697926
    157 H67        -6.1540   -3.5040   -1.5470 hn        1 MOL      0.162748
    158 H68        -5.4290   -3.5090    1.2640 h1        1 MOL      0.079439
    159 H69        -3.8510   -4.1200   -1.1940 hc        1 MOL      0.064874
    160 H70        -3.1610   -4.2750    0.3390 hc        1 MOL      0.064874
    161 H71        -2.8190   -2.1710    0.6420 hc        1 MOL     -0.007623
    162 H72        -4.4310   -1.6360   -0.1280 hc        1 MOL     -0.007623
    163 N14        -5.3700   -6.2120    1.6340 n         1 MOL     -0.206004
    164 C55        -5.6140   -5.6370    2.9800 c3        1 MOL     -0.155311
    165 H73        -4.6800   -5.6220    3.5430 h1        1 MOL      0.078028
    166 H74        -5.9920   -4.6190    2.8780 h1        1 MOL      0.078028
    167 H75        -6.3470   -6.2460    3.5100 h1        1 MOL      0.078028
    168 H76        -5.2000   -7.2110    1.6060 hn        1 MOL      0.242459
    169 Ca1         7.3460    0.5650   -0.0360 Ca        1 MOL      1.788182
    170 O24         5.9170    1.2260    2.0840 oh        1 MOL     -0.871132
    171 H77         5.4040    0.7320    2.7250 ho        1 MOL      0.409713
    172 H78         5.8470    2.1390    2.3610 ho        1 MOL      0.409713
    173 O25         9.8080    1.5160   -0.2310 oh        1 MOL     -0.871132
    174 H79        10.3340    2.1460    0.2580 ho        1 MOL      0.409713
    175 H80        10.4310    0.8470   -0.5160 ho        1 MOL      0.409713
    176 O26         8.0300    1.6790   -2.3080 oh        1 MOL     -0.871132
    177 H81         8.0630    1.7570   -3.2710 ho        1 MOL      0.409713
    178 H82         8.8090    2.1520   -2.0160 ho        1 MOL      0.409713
    179 O27         7.3880    3.1650    0.4750 oh        1 MOL     -0.871132
    180 H83         7.9160    3.7000   -0.1150 ho        1 MOL      0.409713
    181 H84         7.6310    3.4520    1.3480 ho        1 MOL      0.409713
@<TRIPOS>BOND
     1    1    2 1   
     2    1    4 1   
     3    1    5 1   
     4    1    6 1   
     5    2    3 2   
     6    2    7 1   
     7    7    8 1   
     8    7   15 1   
     9    8    9 1   
    10    8   11 1   
    11    8   16 1   
    12    9   10 2   
    13    9   19 1   
    14   11   12 1   
    15   11   17 1   
    16   11   18 1   
    17   12   13 1   
    18   12   14 1   
    19   19   20 1   
    20   19   24 1   
    21   20   21 1   
    22   20   23 1   
    23   20   25 1   
    24   21   22 2   
    25   21   29 1   
    26   23   26 1   
    27   23   27 1   
    28   23   28 1   
    29   29   30 1   
    30   29   37 1   
    31   30   31 1   
    32   30   33 1   
    33   30   38 1   
    34   31   32 2   
    35   31   41 1   
    36   33   34 1   
    37   33   39 1   
    38   33   40 1   
    39   34   35 1   
    40   34   36 1   
    41   41   42 1   
    42   41   45 1   
    43   42   43 1   
    44   42   46 1   
    45   42   47 1   
    46   43   44 2   
    47   43   48 1   
    48   48   49 1   
    49   48   56 1   
    50   49   50 1   
    51   49   52 1   
    52   49   57 1   
    53   50   51 2   
    54   50   62 1   
    55   52   53 1   
    56   52   58 1   
    57   52   59 1   
    58   53   54 1   
    59   53   55 2   
    60   54   60 1   
    61   54   61 1   
    62   62   63 1   
    63   62   66 1   
    64   63   64 1   
    65   63   67 1   
    66   63   68 1   
    67   64   65 2   
    68   64   69 1   
    69   69   70 1   
    70   69   76 1   
    71   70   71 1   
    72   70   73 1   
    73   70   77 1   
    74   71   72 2   
    75   71   83 1   
    76   73   74 1   
    77   73   75 1   
    78   73   78 1   
    79   74   80 1   
    80   74   81 1   
    81   74   82 1   
    82   75   79 1   
    83   83   84 1   
    84   83   91 1   
    85   84   85 1   
    86   84   87 1   
    87   84   92 1   
    88   85   86 2   
    89   85  102 1   
    90   87   88 1   
    91   87   89 1   
    92   87   93 1   
    93   88   90 1   
    94   88   94 1   
    95   88   95 1   
    96   89   96 1   
    97   89   97 1   
    98   89   98 1   
    99   90   99 1   
   100   90  100 1   
   101   90  101 1   
   102  102  103 1   
   103  102  110 1   
   104  103  104 1   
   105  103  106 1   
   106  103  111 1   
   107  104  105 2   
   108  104  114 1   
   109  106  107 1   
   110  106  112 1   
   111  106  113 1   
   112  107  108 1   
   113  107  109 1   
   114  114  115 1   
   115  114  125 1   
   116  115  116 1   
   117  115  118 1   
   118  115  126 1   
   119  116  117 2   
   120  116  134 1   
   121  118  119 1   
   122  118  127 1   
   123  118  128 1   
   124  119  120 ar  
   125  119  121 ar  
   126  120  122 ar  
   127  120  129 1   
   128  121  123 ar  
   129  121  130 1   
   130  122  124 ar  
   131  122  131 1   
   132  123  124 ar  
   133  123  132 1   
   134  124  133 1   
   135  134  135 1   
   136  134  140 1   
   137  135  136 1   
   138  135  138 1   
   139  135  141 1   
   140  136  137 2   
   141  136  148 1   
   142  138  139 1   
   143  138  142 1   
   144  138  143 1   
   145  139  140 1   
   146  139  144 1   
   147  139  145 1   
   148  140  146 1   
   149  140  147 1   
   150  148  149 1   
   151  148  157 1   
   152  149  150 1   
   153  149  152 1   
   154  149  158 1   
   155  150  151 2   
   156  150  163 1   
   157  152  153 1   
   158  152  159 1   
   159  152  160 1   
   160  153  154 1   
   161  153  161 1   
   162  153  162 1   
   163  154  155 1   
   164  154  156 1   
   165  163  164 1   
   166  163  168 1   
   167  164  165 1   
   168  164  166 1   
   169  164  167 1   
   170  170  171 1   
   171  170  172 1   
   172  173  174 1   
   173  173  175 1   
   174  176  177 1   
   175  176  178 1   
   176  179  180 1   
   177  179  181 1   
@<TRIPOS>SUBSTRUCTURE
     1 MOL         1 TEMP              0 ****  ****    0 ROOT
