@<TRIPOS>MOLECULE
MOL
  192   187     1     0     0
SMALL
resp


@<TRIPOS>ATOM
      1 C1         -4.5190   -1.7690   -4.3660 c3        1 MOL     -0.475238
      2 C2         -4.8860   -0.9400   -3.1560 c         1 MOL      0.660968
      3 O1         -4.0210   -0.3050   -2.5480 o         1 MOL     -0.583277
      4 H1         -5.3200   -2.4800   -4.5740 hc        1 MOL      0.131111
      5 H2         -4.3810   -1.1160   -5.2270 hc        1 MOL      0.131111
      6 H3         -3.5950   -2.3120   -4.1690 hc        1 MOL      0.131111
      7 N1         -6.1170   -1.1480   -2.6810 n         1 MOL     -0.574379
      8 C3         -6.8030   -0.3750   -1.6530 c3        1 MOL      0.221085
      9 C4         -6.6630   -1.0390   -0.3370 c         1 MOL      0.223426
     10 O2         -6.8060   -0.3580    0.6690 o         1 MOL     -0.469922
     11 C5         -8.2330   -0.1300   -2.0230 c3        1 MOL     -0.424472
     12 C6         -9.0820   -1.3870   -2.3070 c         1 MOL      0.855596
     13 O3        -10.1740   -1.5280   -1.7370 o         1 MOL     -0.746632
     14 O4         -8.7110   -2.1590   -3.2200 o         1 MOL     -0.746632
     15 H4         -6.6770   -1.8220   -3.1770 hn        1 MOL      0.338872
     16 H5         -6.3180    0.5850   -1.4660 h1        1 MOL      0.078764
     17 H6         -8.2700    0.4480   -2.9510 hc        1 MOL      0.122929
     18 H7         -8.6450    0.4540   -1.2040 hc        1 MOL      0.122929
     19 N2         -6.2440   -2.3100   -0.1740 n         1 MOL     -0.290354
     20 C7         -6.2260   -3.0500    1.1340 c3        1 MOL     -0.002500
     21 C8         -4.8680   -3.7890    1.2860 c         1 MOL      0.608198
     22 O5         -4.8470   -4.9030    1.7740 o         1 MOL     -0.581025
     23 C9         -7.4920   -3.9590    1.3540 c3        1 MOL     -0.075036
     24 C10        -8.8470   -3.3690    0.9490 c3        1 MOL      0.244515
     25 C11        -9.9640   -4.3100    1.2790 c3        1 MOL     -0.211153
     26 C12       -11.3460   -3.8070    0.9030 c3        1 MOL     -0.008468
     27 N3        -11.6300   -3.7280   -0.5450 n4        1 MOL     -0.341115
     28 H8         -6.3920   -2.9040   -0.9700 hn        1 MOL      0.240477
     29 H9         -6.1950   -2.3010    1.9170 h1        1 MOL      0.102093
     30 H10        -7.6290   -4.2760    2.3910 hc        1 MOL      0.023970
     31 H11        -7.2550   -4.8980    0.8390 hc        1 MOL      0.023970
     32 H12        -8.7940   -3.1110   -0.1060 hc        1 MOL     -0.009761
     33 H13        -9.0370   -2.4500    1.4850 hc        1 MOL     -0.009761
     34 H14        -9.9610   -4.5700    2.3410 hc        1 MOL      0.063287
     35 H15        -9.6920   -5.1650    0.6650 hc        1 MOL      0.063287
     36 H16       -11.6060   -2.8140    1.2760 hx        1 MOL      0.102436
     37 H17       -12.1290   -4.4350    1.3320 hx        1 MOL      0.102436
     38 H18       -10.9190   -3.1190   -0.9170 hn        1 MOL      0.307275
     39 H19       -11.4740   -4.6050   -1.0330 hn        1 MOL      0.307275
     40 H20       -12.5610   -3.4210   -0.7940 hn        1 MOL      0.307275
     41 N4         -3.6960   -3.3500    0.8490 n         1 MOL     -0.539329
     42 C13        -3.3470   -2.0530    0.1760 c3        1 MOL      0.266394
     43 C14        -3.7410   -0.7610    0.8520 c         1 MOL      0.377119
     44 O6         -3.8580   -0.8150    2.0450 o         1 MOL     -0.478483
     45 C15        -1.8140   -2.0320   -0.0780 c3        1 MOL     -0.300710
     46 C16        -0.9830   -2.2890    1.1420 c         1 MOL      0.793132
     47 O7         -0.4890   -1.2480    1.6000 o         1 MOL     -0.678362
     48 O8         -0.8030   -3.4450    1.6090 o         1 MOL     -0.678362
     49 H21        -2.9000   -3.9310    1.0550 hn        1 MOL      0.313150
     50 H22        -3.8950   -2.1780   -0.7560 h1        1 MOL     -0.020880
     51 H23        -1.5380   -1.1100   -0.5740 hc        1 MOL     -0.012738
     52 H24        -1.6040   -2.8160   -0.8010 hc        1 MOL     -0.012738
     53 N5         -3.8160    0.3610    0.1790 n         1 MOL      0.007328
     54 C17        -4.0770    1.7110    0.6710 c3        1 MOL     -0.487757
     55 C18        -2.8250    2.4530    1.2280 c         1 MOL      0.694977
     56 O9         -1.6760    2.0210    1.1620 o         1 MOL     -0.610934
     57 H25        -3.7030    0.3970   -0.8230 hn        1 MOL      0.244106
     58 H26        -4.7740    1.6720    1.5040 h1        1 MOL      0.164745
     59 H27        -4.5040    2.2330   -0.1790 h1        1 MOL      0.164745
     60 N6         -3.0510    3.5650    1.9500 n         1 MOL     -0.461997
     61 C19        -1.9810    4.4490    2.3970 c3        1 MOL      0.304819
     62 C20        -2.3630    5.8920    2.2580 c         1 MOL      0.471815
     63 O10        -3.5130    6.2340    2.3160 o         1 MOL     -0.550055
     64 C21        -1.6620    4.2680    3.9380 c3        1 MOL     -0.304563
     65 C22        -0.9500    2.9810    4.3090 c         1 MOL      0.624292
     66 O11        -0.0250    2.6740    3.5380 o         1 MOL     -0.630868
     67 O12        -1.3240    2.3400    5.3130 o         1 MOL     -0.630868
     68 H28        -3.9290    4.0660    1.9720 hn        1 MOL      0.262320
     69 H29        -1.0880    4.3280    1.7840 h1        1 MOL     -0.060712
     70 H30        -2.5520    4.4300    4.5410 hc        1 MOL      0.083001
     71 H31        -1.0500    5.1160    4.2310 hc        1 MOL      0.083001
     72 N7         -1.4700    6.9020    2.2260 n         1 MOL     -0.449492
     73 C23         0.0300    6.8410    2.2570 c3        1 MOL     -0.072447
     74 C24         0.5690    6.5910    0.8620 c         1 MOL      0.596687
     75 O13        -0.0440    6.8810   -0.1720 o         1 MOL     -0.532407
     76 H32        -1.8800    7.8310    2.2740 hn        1 MOL      0.313601
     77 H33         0.3570    6.0850    2.9660 h1        1 MOL      0.078384
     78 H34         0.3420    7.8510    2.5230 h1        1 MOL      0.078384
     79 N8          1.7660    6.0620    0.7950 n         1 MOL     -0.512483
     80 C25         2.3250    5.4320   -0.4820 c3        1 MOL      0.171988
     81 C26         1.5020    4.1170   -0.7590 c         1 MOL      0.759897
     82 O14         1.2320    3.3010    0.0850 o         1 MOL     -0.720701
     83 C27         3.8550    5.2300   -0.4840 c3        1 MOL      0.192998
     84 C28         4.3670    4.2560    0.6250 c3        1 MOL     -0.190816
     85 O15         4.5690    6.4420   -0.3200 oh        1 MOL     -0.623314
     86 H35         2.3100    5.8540    1.6130 hn        1 MOL      0.316239
     87 H36         2.1430    6.0870   -1.3330 h1        1 MOL      0.042084
     88 H37         4.1960    4.7420   -1.3980 h1        1 MOL     -0.002578
     89 H38         5.4750    6.2680   -0.6070 ho        1 MOL      0.411897
     90 H39         3.9460    3.2780    0.3780 hc        1 MOL      0.053391
     91 H40         5.4600    4.2020    0.6020 hc        1 MOL      0.053391
     92 H41         4.0860    4.6250    1.6080 hc        1 MOL      0.053391
     93 N9          1.2640    3.8360   -2.0590 n         1 MOL     -0.655609
     94 C29         0.3420    2.8510   -2.6180 c3        1 MOL      0.184986
     95 C30         0.5130    1.4110   -2.1220 c         1 MOL      0.173324
     96 O16         0.0780    1.0590   -0.9900 o         1 MOL     -0.438680
     97 C31        -1.1540    3.3800   -2.4020 c3        1 MOL     -0.093436
     98 C32        -1.3710    4.7250   -3.1500 c3        1 MOL      0.031856
     99 C33        -2.1810    2.3650   -2.8110 c3        1 MOL     -0.706360
    100 C34        -2.6730    5.4720   -2.8080 c3        1 MOL     -0.142394
    101 H42         1.5730    4.5240   -2.7310 hn        1 MOL      0.286913
    102 H43         0.4910    2.7500   -3.6950 h1        1 MOL      0.036187
    103 H44        -1.2580    3.5520   -1.3260 hc        1 MOL      0.192424
    104 H45        -1.4200    4.6460   -4.2370 hc        1 MOL      0.021966
    105 H46        -0.5950    5.4510   -2.8770 hc        1 MOL      0.021966
    106 H47        -2.1820    2.2480   -3.8930 hc        1 MOL      0.197050
    107 H48        -1.9990    1.4360   -2.2750 hc        1 MOL      0.197050
    108 H49        -3.1830    2.6030   -2.4900 hc        1 MOL      0.197050
    109 H50        -2.7430    5.5770   -1.7310 hc        1 MOL      0.041941
    110 H51        -2.7000    6.4040   -3.3860 hc        1 MOL      0.041941
    111 H52        -3.5070    4.8260   -3.0650 hc        1 MOL      0.041941
    112 N10         1.0370    0.5860   -2.9500 n         1 MOL     -0.075140
    113 C35         1.1270   -0.8830   -2.7070 c3        1 MOL     -0.267360
    114 C36         2.5320   -1.5040   -2.9010 c         1 MOL      0.421632
    115 O17         2.7030   -2.7130   -2.7440 o         1 MOL     -0.527011
    116 C37         0.1730   -1.5950   -3.6810 c3        1 MOL      0.343572
    117 C38         0.5820   -1.5670   -5.1930 c3        1 MOL     -0.414230
    118 O18        -1.1270   -1.0110   -3.5890 oh        1 MOL     -0.561281
    119 H53         1.3490    0.9020   -3.8610 hn        1 MOL      0.246965
    120 H54         0.8350   -1.0750   -1.6690 h1        1 MOL      0.195766
    121 H55        -0.0460   -2.6140   -3.3620 h1        1 MOL      0.038249
    122 H56        -1.3720   -1.0440   -2.6670 ho        1 MOL      0.441703
    123 H57         1.5280   -2.1170   -5.2460 hc        1 MOL      0.114793
    124 H58        -0.0880   -2.0560   -5.9050 hc        1 MOL      0.114793
    125 H59         0.7470   -0.5530   -5.5390 hc        1 MOL      0.114793
    126 N11         3.6070   -0.7240   -3.0920 n         1 MOL     -0.008960
    127 C39         4.9930   -1.2650   -3.2880 c3        1 MOL     -0.273540
    128 C40         5.7040   -1.1360   -1.9200 c         1 MOL      0.426885
    129 O19         5.5220   -0.1470   -1.2140 o         1 MOL     -0.460050
    130 C41         5.7600   -0.4030   -4.3180 c3        1 MOL      0.324483
    131 C42         5.2810   -0.6630   -5.7900 c3        1 MOL     -0.480599
    132 O20         5.5740    0.9500   -4.1290 oh        1 MOL     -0.590854
    133 H60         3.4440    0.2510   -3.2840 hn        1 MOL      0.143113
    134 H61         5.0040   -2.3180   -3.5740 h1        1 MOL      0.144190
    135 H62         6.8350   -0.5690   -4.3250 h1        1 MOL      0.024811
    136 H63         6.2510    1.3860   -4.6490 ho        1 MOL      0.413132
    137 H64         6.0490   -0.3140   -6.4740 hc        1 MOL      0.127138
    138 H65         5.1420   -1.7330   -5.9670 hc        1 MOL      0.127138
    139 H66         4.3380   -0.1170   -5.8710 hc        1 MOL      0.127138
    140 N12         6.6040   -2.0830   -1.5780 n         1 MOL     -0.377355
    141 C43         7.3570   -2.2610   -0.2940 c3        1 MOL      0.267813
    142 C44         6.5630   -1.9910    1.0420 c         1 MOL      0.328183
    143 O21         7.0010   -1.1600    1.8880 o         1 MOL     -0.466098
    144 C45         8.7260   -1.4740   -0.3350 c3        1 MOL     -0.465570
    145 C46         9.7550   -1.8880   -1.3150 c3        1 MOL      0.187653
    146 C47        10.0170   -3.3930   -1.1860 c3        1 MOL     -0.128108
    147 C48        11.3540   -3.6440   -1.9380 c3        1 MOL      0.020456
    148 N13        12.2760   -4.4260   -1.0950 n4        1 MOL     -0.205820
    149 H67         6.7680   -2.8510   -2.2170 hn        1 MOL      0.257858
    150 H68         7.5670   -3.3280   -0.3550 h1        1 MOL     -0.015927
    151 H69         9.0800   -1.4820    0.6990 hc        1 MOL      0.154449
    152 H70         8.6030   -0.4010   -0.4420 hc        1 MOL      0.154449
    153 H71        10.6990   -1.3400   -1.2570 hc        1 MOL     -0.002087
    154 H72         9.3570   -1.6960   -2.3170 hc        1 MOL     -0.002087
    155 H73         9.1770   -3.9600   -1.6000 hc        1 MOL      0.073495
    156 H74        10.1720   -3.5960   -0.1290 hc        1 MOL      0.073495
    157 H75        11.8810   -2.7100   -2.1240 hx        1 MOL      0.060269
    158 H76        11.1570   -4.2260   -2.8470 hx        1 MOL      0.060269
    159 H77        12.4490   -3.9290   -0.2410 hn        1 MOL      0.219806
    160 H78        11.9320   -5.3830   -1.0570 hn        1 MOL      0.219806
    161 H79        13.1740   -4.5350   -1.5340 hn        1 MOL      0.219806
    162 N14         5.3180   -2.5480    1.1560 n         1 MOL     -0.464245
    163 C49         4.4100   -2.2360    2.2800 c3        1 MOL      0.331717
    164 C50         2.9080   -2.3350    1.9760 c         1 MOL      0.335552
    165 O22         2.2860   -1.2950    2.0210 o         1 MOL     -0.583440
    166 C51         4.7790   -3.1650    3.4520 c3        1 MOL     -0.302345
    167 C52         3.6620   -3.3180    4.4790 c3        1 MOL     -0.043181
    168 C53         4.2340   -3.8710    5.8330 c         1 MOL      0.684764
    169 O23         4.4420   -3.1190    6.7830 o         1 MOL     -0.617041
    170 O24         4.5490   -5.0430    5.8750 o         1 MOL     -0.617041
    171 H80         5.1390   -3.3920    0.6160 hn        1 MOL      0.267789
    172 H81         4.5860   -1.1960    2.5520 h1        1 MOL      0.027520
    173 H82         5.6660   -2.7480    3.9190 hc        1 MOL      0.094148
    174 H83         4.9570   -4.1610    3.0480 hc        1 MOL      0.094148
    175 H84         2.8890   -3.9970    4.1330 hc        1 MOL      0.008637
    176 H85         3.2180   -2.3460    4.7300 hc        1 MOL      0.008637
    177 N15         2.4250   -3.4620    1.3740 n         1 MOL     -0.193549
    178 C54         2.9520   -4.8600    1.1880 c3        1 MOL     -0.172451
    179 H86         2.1540   -5.5020    0.8130 h1        1 MOL      0.095612
    180 H87         3.7750   -4.8470    0.4740 h1        1 MOL      0.095612
    181 H88         3.3060   -5.2460    2.1440 h1        1 MOL      0.095612
    182 H89         1.4590   -3.3450    1.0860 hn        1 MOL      0.238862
    183 Ca1         0.7900    1.1070    1.6970 Ca        1 MOL      1.773958
    184 O25         3.0490    1.9240    2.6880 oh        1 MOL     -0.878112
    185 H90         3.6000    1.8370    3.4660 ho        1 MOL      0.433429
    186 H91         3.5720    1.5430    1.9780 ho        1 MOL      0.433429
    187 O26         3.0540    0.9080   -0.0600 oh        1 MOL     -0.878112
    188 H92         3.8940    0.4580    0.0050 ho        1 MOL      0.433429
    189 H93         3.1010    1.3910   -0.8800 ho        1 MOL      0.433429
    190 O27         1.0780    0.0560    4.2080 oh        1 MOL     -0.878112
    191 H94         1.2210   -0.8940    4.2870 ho        1 MOL      0.433429
    192 H95         1.5180    0.4300    4.9720 ho        1 MOL      0.433429
@<TRIPOS>BOND
     1    1    2 1   
     2    1    4 1   
     3    1    5 1   
     4    1    6 1   
     5    2    3 2   
     6    2    7 1   
     7    7    8 1   
     8    7   15 1   
     9    8    9 1   
    10    8   11 1   
    11    8   16 1   
    12    9   10 2   
    13    9   19 1   
    14   11   12 1   
    15   11   17 1   
    16   11   18 1   
    17   12   13 1   
    18   12   14 1   
    19   19   20 1   
    20   19   28 1   
    21   20   21 1   
    22   20   23 1   
    23   20   29 1   
    24   21   22 2   
    25   21   41 1   
    26   23   24 1   
    27   23   30 1   
    28   23   31 1   
    29   24   25 1   
    30   24   32 1   
    31   24   33 1   
    32   25   26 1   
    33   25   34 1   
    34   25   35 1   
    35   26   27 1   
    36   26   36 1   
    37   26   37 1   
    38   27   38 1   
    39   27   39 1   
    40   27   40 1   
    41   41   42 1   
    42   41   49 1   
    43   42   43 1   
    44   42   45 1   
    45   42   50 1   
    46   43   44 2   
    47   43   53 1   
    48   45   46 1   
    49   45   51 1   
    50   45   52 1   
    51   46   47 1   
    52   46   48 1   
    53   53   54 1   
    54   53   57 1   
    55   54   55 1   
    56   54   58 1   
    57   54   59 1   
    58   55   56 2   
    59   55   60 1   
    60   60   61 1   
    61   60   68 1   
    62   61   62 1   
    63   61   64 1   
    64   61   69 1   
    65   62   63 2   
    66   62   72 1   
    67   64   65 1   
    68   64   70 1   
    69   64   71 1   
    70   65   66 1   
    71   65   67 1   
    72   72   73 1   
    73   72   76 1   
    74   73   74 1   
    75   73   77 1   
    76   73   78 1   
    77   74   75 2   
    78   74   79 1   
    79   79   80 1   
    80   79   86 1   
    81   80   81 1   
    82   80   83 1   
    83   80   87 1   
    84   81   82 2   
    85   81   93 1   
    86   83   84 1   
    87   83   85 1   
    88   83   88 1   
    89   84   90 1   
    90   84   91 1   
    91   84   92 1   
    92   85   89 1   
    93   93   94 1   
    94   93  101 1   
    95   94   95 1   
    96   94   97 1   
    97   94  102 1   
    98   95   96 2   
    99   95  112 1   
   100   97   98 1   
   101   97   99 1   
   102   97  103 1   
   103   98  100 1   
   104   98  104 1   
   105   98  105 1   
   106   99  106 1   
   107   99  107 1   
   108   99  108 1   
   109  100  109 1   
   110  100  110 1   
   111  100  111 1   
   112  112  113 1   
   113  112  119 1   
   114  113  114 1   
   115  113  116 1   
   116  113  120 1   
   117  114  115 2   
   118  114  126 1   
   119  116  117 1   
   120  116  118 1   
   121  116  121 1   
   122  117  123 1   
   123  117  124 1   
   124  117  125 1   
   125  118  122 1   
   126  126  127 1   
   127  126  133 1   
   128  127  128 1   
   129  127  130 1   
   130  127  134 1   
   131  128  129 2   
   132  128  140 1   
   133  130  131 1   
   134  130  132 1   
   135  130  135 1   
   136  131  137 1   
   137  131  138 1   
   138  131  139 1   
   139  132  136 1   
   140  140  141 1   
   141  140  149 1   
   142  141  142 1   
   143  141  144 1   
   144  141  150 1   
   145  142  143 2   
   146  142  162 1   
   147  144  145 1   
   148  144  151 1   
   149  144  152 1   
   150  145  146 1   
   151  145  153 1   
   152  145  154 1   
   153  146  147 1   
   154  146  155 1   
   155  146  156 1   
   156  147  148 1   
   157  147  157 1   
   158  147  158 1   
   159  148  159 1   
   160  148  160 1   
   161  148  161 1   
   162  162  163 1   
   163  162  171 1   
   164  163  164 1   
   165  163  166 1   
   166  163  172 1   
   167  164  165 2   
   168  164  177 1   
   169  166  167 1   
   170  166  173 1   
   171  166  174 1   
   172  167  168 1   
   173  167  175 1   
   174  167  176 1   
   175  168  169 1   
   176  168  170 1   
   177  177  178 1   
   178  177  182 1   
   179  178  179 1   
   180  178  180 1   
   181  178  181 1   
   182  184  185 1   
   183  184  186 1   
   184  187  188 1   
   185  187  189 1   
   186  190  191 1   
   187  190  192 1   
@<TRIPOS>SUBSTRUCTURE
     1 MOL         1 TEMP              0 ****  ****    0 ROOT
