@<TRIPOS>MOLECULE
MOL
  189   185     1     0     0
SMALL
resp


@<TRIPOS>ATOM
      1 C1          4.9660    3.8270   -3.4440 c3        1 MOL     -0.467620
      2 C2          5.6150    3.1220   -2.1820 c         1 MOL      0.797575
      3 O1          4.9900    2.9410   -1.1640 o         1 MOL     -0.582947
      4 H1          4.3080    3.1230   -3.9530 hc        1 MOL      0.110834
      5 H2          4.3900    4.6940   -3.1200 hc        1 MOL      0.110834
      6 H3          5.7530    4.1470   -4.1270 hc        1 MOL      0.110834
      7 N1          6.8900    2.7390   -2.3570 n         1 MOL     -0.633690
      8 C3          7.5670    1.6300   -1.6780 c3        1 MOL      0.334146
      9 C4          6.5390    0.5250   -1.4170 c         1 MOL      0.219490
     10 O2          5.9520    0.2900   -0.3150 o         1 MOL     -0.583324
     11 C5          8.3160    2.0430   -0.4310 c3        1 MOL     -0.032661
     12 C6          7.7580    3.2730    0.3370 c         1 MOL      0.690243
     13 O3          6.8320    3.0900    1.1510 o         1 MOL     -0.727692
     14 O4          8.2130    4.3910   -0.0240 o         1 MOL     -0.727692
     15 H4          7.3230    3.0970   -3.1950 hn        1 MOL      0.296783
     16 H5          8.3300    1.1630   -2.3000 h1        1 MOL      0.025226
     17 H6          9.2900    2.2660   -0.8760 hc        1 MOL     -0.021422
     18 H7          8.5230    1.1890    0.2140 hc        1 MOL     -0.021422
     19 N2          6.1890   -0.1630   -2.5010 n         1 MOL     -0.272787
     20 C7          5.4170   -1.3970   -2.7770 c3        1 MOL      0.041048
     21 C8          5.8900   -2.6650   -1.9280 c         1 MOL      0.346160
     22 O5          6.0180   -3.7380   -2.4540 o         1 MOL     -0.558823
     23 C9          3.8640   -1.3000   -2.6090 c3        1 MOL      0.089415
     24 C10         2.9340   -2.4870   -2.9710 c3        1 MOL      0.004091
     25 C11         3.2890    0.0090   -3.2590 c3        1 MOL     -0.314498
     26 C12         2.7060   -2.7610   -4.4650 c3        1 MOL     -0.313239
     27 H8          6.7600    0.0990   -3.3010 hn        1 MOL      0.200621
     28 H9          5.5610   -1.6300   -3.8310 h1        1 MOL      0.063139
     29 H10         3.7590   -1.0550   -1.5530 hc        1 MOL      0.000858
     30 H11         1.9330   -2.3330   -2.5430 hc        1 MOL      0.079610
     31 H12         3.2760   -3.4280   -2.5450 hc        1 MOL      0.079610
     32 H13         2.2030   -0.0100   -3.3240 hc        1 MOL      0.067750
     33 H14         3.7020    0.9130   -2.8070 hc        1 MOL      0.067750
     34 H15         3.6570   -0.0000   -4.2810 hc        1 MOL      0.067750
     35 H16         2.1700   -3.7090   -4.5900 hc        1 MOL      0.068589
     36 H17         2.1970   -1.8960   -4.8680 hc        1 MOL      0.068589
     37 H18         3.6590   -2.8720   -4.9800 hc        1 MOL      0.068589
     38 N3          6.1880   -2.5380   -0.6390 n         1 MOL     -0.010308
     39 C13         6.8040   -3.5810    0.1320 c3        1 MOL     -0.071224
     40 C14         6.0420   -4.8940    0.4460 c         1 MOL      0.674292
     41 O6          6.7010   -5.8590    0.5840 o         1 MOL     -0.596075
     42 C15         7.2530   -2.9750    1.4860 c3        1 MOL     -0.254026
     43 C16         8.2130   -1.7760    1.4390 c         1 MOL      0.821962
     44 O7          8.1390   -0.8970    2.3120 o         1 MOL     -0.733595
     45 O8          9.1260   -1.8420    0.5680 o         1 MOL     -0.733595
     46 H19         6.1000   -1.6280   -0.2090 hn        1 MOL      0.188863
     47 H20         7.7290   -3.8110   -0.3950 h1        1 MOL      0.057992
     48 H21         7.7630   -3.7270    2.0760 hc        1 MOL      0.060880
     49 H22         6.3880   -2.6500    2.0780 hc        1 MOL      0.060880
     50 N4          4.7300   -4.8910    0.6500 n         1 MOL     -0.610680
     51 C17         3.9450   -3.6810    0.8980 c3        1 MOL      0.233548
     52 C18         2.6480   -4.1510    1.4760 c         1 MOL      0.609574
     53 O9          2.2040   -5.2920    1.2180 o         1 MOL     -0.587402
     54 H23         4.2370   -5.7120    0.9650 hn        1 MOL      0.303974
     55 H24         3.7270   -3.1700   -0.0410 h1        1 MOL     -0.015422
     56 H25         4.3950   -3.0080    1.6290 h1        1 MOL     -0.015422
     57 N5          1.9330   -3.4140    2.3530 n         1 MOL     -0.663760
     58 C19         2.2830   -2.1190    2.9700 c3        1 MOL      0.538532
     59 C20         2.4100   -1.0360    1.7850 c         1 MOL      0.062978
     60 O10         3.4940   -0.5450    1.4730 o         1 MOL     -0.461405
     61 C21         3.4490   -2.0180    3.9310 c3        1 MOL     -0.581355
     62 C22         3.5410   -0.7120    4.7360 c         1 MOL      0.829779
     63 O11         4.6310   -0.3380    5.2550 o         1 MOL     -0.695404
     64 O12         2.5330   -0.0340    4.8430 o         1 MOL     -0.695404
     65 H26         0.9940   -3.7610    2.5020 hn        1 MOL      0.303531
     66 H27         1.3980   -1.8730    3.5580 h1        1 MOL      0.011076
     67 H28         4.4160   -2.2960    3.4970 hc        1 MOL      0.122707
     68 H29         3.3610   -2.8090    4.6800 hc        1 MOL      0.122707
     69 N6          1.3050   -0.6830    1.0630 n         1 MOL     -0.098969
     70 C23        -0.0490   -1.1400    1.2380 c3        1 MOL     -0.191048
     71 C24        -0.3490   -2.4030    0.3560 c         1 MOL      0.550064
     72 O13         0.3750   -2.9560   -0.4720 o         1 MOL     -0.522391
     73 H30         1.3900    0.0900    0.4160 hn        1 MOL      0.168156
     74 H31        -0.6250   -0.3280    0.7820 h1        1 MOL      0.097687
     75 H32        -0.3290   -1.2360    2.2850 h1        1 MOL      0.097687
     76 N7         -1.5500   -2.8190    0.6350 n         1 MOL     -0.375437
     77 C25        -2.0620   -4.1160    0.1300 c3        1 MOL      0.032626
     78 C26        -2.5320   -4.0470   -1.2890 c         1 MOL      0.323165
     79 O14        -2.7820   -5.0460   -1.9890 o         1 MOL     -0.539988
     80 C27        -3.1880   -4.6500    1.0390 c3        1 MOL     -0.026133
     81 C28        -4.5330   -3.9450    1.0130 c3        1 MOL     -0.060926
     82 C29        -5.4860   -4.6160    2.0000 c         1 MOL      0.692385
     83 N8         -6.6620   -4.9560    1.5530 n         1 MOL     -0.795858
     84 O15        -5.2100   -4.9630    3.1480 o         1 MOL     -0.581895
     85 H33        -1.9880   -2.3650    1.4240 hn        1 MOL      0.241087
     86 H34        -1.2500   -4.8380    0.1620 h1        1 MOL      0.130445
     87 H35        -2.9300   -4.6310    2.1010 hc        1 MOL      0.022119
     88 H36        -3.3390   -5.6980    0.7760 hc        1 MOL      0.022119
     89 H37        -4.9280   -3.9160   -0.0050 hc        1 MOL      0.015129
     90 H38        -4.4750   -2.9200    1.3770 hc        1 MOL      0.015129
     91 H39        -7.0160   -4.5620    0.6910 hn        1 MOL      0.347408
     92 H40        -7.0560   -5.8370    1.8590 hn        1 MOL      0.347408
     93 N9         -2.7200   -2.9060   -1.7680 n         1 MOL     -0.029863
     94 C30        -3.1940   -2.6510   -3.1340 c3        1 MOL     -0.163295
     95 C31        -4.6720   -2.2060   -3.1890 c         1 MOL      0.598214
     96 O16        -5.2430   -2.3790   -4.2340 o         1 MOL     -0.563240
     97 C32        -2.3060   -1.6530   -3.8760 c3        1 MOL      0.229177
     98 C33        -0.9400   -2.2350   -4.1030 c3        1 MOL     -0.245099
     99 C34        -2.1470   -0.3080   -3.2220 c3        1 MOL     -0.245099
    100 H41        -2.6960   -2.0830   -1.1820 hn        1 MOL      0.128519
    101 H42        -3.2040   -3.5330   -3.7740 h1        1 MOL      0.125409
    102 H43        -2.8540   -1.4750   -4.7990 hc        1 MOL     -0.008108
    103 H44        -0.3340   -2.1820   -3.1920 hc        1 MOL      0.055066
    104 H45        -1.1560   -3.2930   -4.2220 hc        1 MOL      0.055066
    105 H46        -0.3500   -1.8640   -4.9440 hc        1 MOL      0.055066
    106 H47        -1.5360   -0.5240   -2.3480 hc        1 MOL      0.055066
    107 H48        -1.6530    0.4630   -3.8060 hc        1 MOL      0.055066
    108 H49        -3.1360    0.0920   -2.9870 hc        1 MOL      0.055066
    109 N10        -5.2430   -1.5910   -2.1320 n         1 MOL     -0.352913
    110 C35        -6.6510   -1.0410   -2.1200 c3        1 MOL      0.127612
    111 C36        -6.7920    0.3700   -1.4880 c         1 MOL      0.475074
    112 O17        -7.4770    1.2100   -2.0610 o         1 MOL     -0.536363
    113 C37        -7.6000   -2.0460   -1.4890 c3        1 MOL     -0.221459
    114 C38        -7.4790   -3.5390   -1.8830 c         1 MOL      0.605111
    115 N11        -8.0580   -3.9260   -2.9830 n         1 MOL     -0.693161
    116 O18        -7.0010   -4.4280   -1.1510 o         1 MOL     -0.545945
    117 H50        -4.6950   -1.5000   -1.2890 hn        1 MOL      0.133932
    118 H51        -7.0150   -0.8300   -3.1200 h1        1 MOL      0.063835
    119 H52        -8.6390   -1.7390   -1.6010 hc        1 MOL      0.068308
    120 H53        -7.2680   -2.0430   -0.4440 hc        1 MOL      0.068308
    121 H54        -8.5430   -3.3640   -3.6580 hn        1 MOL      0.346034
    122 H55        -8.1630   -4.9170   -3.1630 hn        1 MOL      0.346034
    123 N12        -6.0320    0.5750   -0.4460 n         1 MOL     -0.364299
    124 C39        -5.9890    1.8770    0.2660 c3        1 MOL      0.131360
    125 C40        -4.6630    2.5930    0.2310 c         1 MOL      0.478506
    126 O19        -3.5700    2.0830    0.1060 o         1 MOL     -0.555944
    127 C41        -6.4100    1.7480    1.7010 c3        1 MOL     -0.336885
    128 C42        -7.7210    1.1200    1.9870 ca        1 MOL     -0.032650
    129 C43        -8.9090    1.8690    1.8110 ca        1 MOL      0.008243
    130 C44        -7.7920   -0.2290    2.4610 ca        1 MOL      0.008243
    131 C45       -10.1720    1.3110    2.0190 ca        1 MOL     -0.365303
    132 C46        -9.0240   -0.7720    2.5600 ca        1 MOL     -0.365303
    133 C47       -10.2320   -0.0550    2.2990 ca        1 MOL      0.373741
    134 O20       -11.4180   -0.6880    2.5290 oh        1 MOL     -0.492108
    135 H56        -5.4720   -0.2150   -0.1630 hn        1 MOL      0.292474
    136 H57        -6.6050    2.5620   -0.3290 h1        1 MOL      0.031889
    137 H58        -6.3590    2.7140    2.1820 hc        1 MOL      0.152414
    138 H59        -5.7420    1.1090    2.2720 hc        1 MOL      0.152414
    139 H60        -8.8510    2.9030    1.5020 ha        1 MOL      0.082561
    140 H61        -6.8890   -0.8080    2.5650 ha        1 MOL      0.082561
    141 H62       -11.0790    1.8960    1.9500 ha        1 MOL      0.156459
    142 H63        -9.1350   -1.7430    3.0220 ha        1 MOL      0.156459
    143 H64       -12.1620   -0.1190    2.3350 ho        1 MOL      0.354224
    144 N13        -4.6810    3.8380    0.6130 n         1 MOL     -0.354506
    145 C48        -3.7060    4.8920    0.8590 c3        1 MOL     -0.234041
    146 C49        -2.7000    5.2940   -0.2320 c         1 MOL      0.590546
    147 O21        -2.2300    6.4110   -0.2450 o         1 MOL     -0.561709
    148 C50        -2.9510    4.6040    2.1310 c3        1 MOL      0.282034
    149 C51        -3.7890    4.6690    3.4900 c3        1 MOL     -0.539338
    150 C52        -3.0050    4.1570    4.6870 c         1 MOL      0.728782
    151 O22        -2.2860    4.9370    5.3980 o         1 MOL     -0.699848
    152 O23        -2.8430    2.9580    4.9630 o         1 MOL     -0.699848
    153 H65        -5.6410    4.1600    0.6760 hn        1 MOL      0.278255
    154 H66        -4.3340    5.7730    0.9800 h1        1 MOL      0.099329
    155 H67        -2.0990    5.2630    2.2080 hc        1 MOL      0.047626
    156 H68        -2.4290    3.6500    2.0350 hc        1 MOL      0.047626
    157 H69        -4.7230    4.1100    3.3890 hc        1 MOL      0.082195
    158 H70        -4.1590    5.6700    3.7120 hc        1 MOL      0.082195
    159 N14        -2.2210    4.3790   -1.0430 n         1 MOL     -0.430924
    160 C53        -1.0640    4.5650   -1.9570 c3        1 MOL     -0.124029
    161 C54        -1.3750    5.3730   -3.1990 c         1 MOL      0.470544
    162 O24        -0.6150    5.5690   -4.1380 o         1 MOL     -0.535029
    163 C55        -0.3680    3.2400   -2.2840 c3        1 MOL     -0.163738
    164 C56         0.2010    2.3730   -1.0980 c3        1 MOL      0.153401
    165 C57         1.4470    2.8790   -0.3230 c         1 MOL      0.615471
    166 O25         1.5340    4.0590   -0.0350 o         1 MOL     -0.649169
    167 O26         2.3010    2.0060    0.0460 o         1 MOL     -0.649169
    168 H71        -2.3910    3.4040   -0.8450 hn        1 MOL      0.263841
    169 H72        -0.3470    5.1790   -1.4110 h1        1 MOL      0.184933
    170 H73         0.4140    3.4600   -3.0200 hc        1 MOL      0.072293
    171 H74        -1.0150    2.5760   -2.8480 hc        1 MOL      0.072293
    172 H75         0.4490    1.4050   -1.5360 hc        1 MOL     -0.023241
    173 H76        -0.5780    2.1070   -0.3820 hc        1 MOL     -0.023241
    174 N15        -2.6480    5.7610   -3.3660 n         1 MOL     -0.232433
    175 C58        -3.0200    6.7200   -4.4230 c3        1 MOL     -0.069904
    176 H77        -3.7220    6.2480   -5.1110 h1        1 MOL      0.052899
    177 H78        -3.4880    7.5950   -3.9710 h1        1 MOL      0.052899
    178 H79        -2.1270    7.0260   -4.9680 h1        1 MOL      0.052899
    179 H80        -3.3120    5.5250   -2.6500 hn        1 MOL      0.195926
    180 Ca1         4.5450    1.9280    1.2220 Ca        1 MOL      1.809791
    181 O27         5.9720    0.6830    3.1620 oh        1 MOL     -0.921530
    182 H81         5.7850    0.2900    4.0210 ho        1 MOL      0.431437
    183 H82         6.7250    0.1900    2.8370 ho        1 MOL      0.431437
    184 O28         2.7730    2.1620    3.3770 oh        1 MOL     -0.921530
    185 H83         2.5170    1.4440    3.9630 ho        1 MOL      0.431437
    186 H84         2.0650    2.7990    3.4390 ho        1 MOL      0.431437
    187 O29         3.8670    4.4610    1.3280 oh        1 MOL     -0.921530
    188 H85         3.0810    4.5850    0.8040 ho        1 MOL      0.431437
    189 H86         4.0560    5.3270    1.6860 ho        1 MOL      0.431437
@<TRIPOS>BOND
     1    1    2 1   
     2    1    4 1   
     3    1    5 1   
     4    1    6 1   
     5    2    3 2   
     6    2    7 1   
     7    7    8 1   
     8    7   15 1   
     9    8    9 1   
    10    8   11 1   
    11    8   16 1   
    12    9   10 2   
    13    9   19 1   
    14   11   12 1   
    15   11   17 1   
    16   11   18 1   
    17   12   13 1   
    18   12   14 1   
    19   19   20 1   
    20   19   27 1   
    21   20   21 1   
    22   20   23 1   
    23   20   28 1   
    24   21   22 2   
    25   21   38 1   
    26   23   24 1   
    27   23   25 1   
    28   23   29 1   
    29   24   26 1   
    30   24   30 1   
    31   24   31 1   
    32   25   32 1   
    33   25   33 1   
    34   25   34 1   
    35   26   35 1   
    36   26   36 1   
    37   26   37 1   
    38   38   39 1   
    39   38   46 1   
    40   39   40 1   
    41   39   42 1   
    42   39   47 1   
    43   40   41 2   
    44   40   50 1   
    45   42   43 1   
    46   42   48 1   
    47   42   49 1   
    48   43   44 1   
    49   43   45 1   
    50   50   51 1   
    51   50   54 1   
    52   51   52 1   
    53   51   55 1   
    54   51   56 1   
    55   52   53 2   
    56   52   57 1   
    57   57   58 1   
    58   57   65 1   
    59   58   59 1   
    60   58   61 1   
    61   58   66 1   
    62   59   60 2   
    63   59   69 1   
    64   61   62 1   
    65   61   67 1   
    66   61   68 1   
    67   62   63 1   
    68   62   64 1   
    69   69   70 1   
    70   69   73 1   
    71   70   71 1   
    72   70   74 1   
    73   70   75 1   
    74   71   72 2   
    75   71   76 1   
    76   76   77 1   
    77   76   85 1   
    78   77   78 1   
    79   77   80 1   
    80   77   86 1   
    81   78   79 2   
    82   78   93 1   
    83   80   81 1   
    84   80   87 1   
    85   80   88 1   
    86   81   82 1   
    87   81   89 1   
    88   81   90 1   
    89   82   83 1   
    90   82   84 2   
    91   83   91 1   
    92   83   92 1   
    93   93   94 1   
    94   93  100 1   
    95   94   95 1   
    96   94   97 1   
    97   94  101 1   
    98   95   96 2   
    99   95  109 1   
   100   97   98 1   
   101   97   99 1   
   102   97  102 1   
   103   98  103 1   
   104   98  104 1   
   105   98  105 1   
   106   99  106 1   
   107   99  107 1   
   108   99  108 1   
   109  109  110 1   
   110  109  117 1   
   111  110  111 1   
   112  110  113 1   
   113  110  118 1   
   114  111  112 2   
   115  111  123 1   
   116  113  114 1   
   117  113  119 1   
   118  113  120 1   
   119  114  115 1   
   120  114  116 2   
   121  115  121 1   
   122  115  122 1   
   123  123  124 1   
   124  123  135 1   
   125  124  125 1   
   126  124  127 1   
   127  124  136 1   
   128  125  126 2   
   129  125  144 1   
   130  127  128 1   
   131  127  137 1   
   132  127  138 1   
   133  128  129 ar  
   134  128  130 ar  
   135  129  131 ar  
   136  129  139 1   
   137  130  132 ar  
   138  130  140 1   
   139  131  133 ar  
   140  131  141 1   
   141  132  133 ar  
   142  132  142 1   
   143  133  134 1   
   144  134  143 1   
   145  144  145 1   
   146  144  153 1   
   147  145  146 1   
   148  145  148 1   
   149  145  154 1   
   150  146  147 2   
   151  146  159 1   
   152  148  149 1   
   153  148  155 1   
   154  148  156 1   
   155  149  150 1   
   156  149  157 1   
   157  149  158 1   
   158  150  151 1   
   159  150  152 1   
   160  159  160 1   
   161  159  168 1   
   162  160  161 1   
   163  160  163 1   
   164  160  169 1   
   165  161  162 2   
   166  161  174 1   
   167  163  164 1   
   168  163  170 1   
   169  163  171 1   
   170  164  165 1   
   171  164  172 1   
   172  164  173 1   
   173  165  166 1   
   174  165  167 1   
   175  174  175 1   
   176  174  179 1   
   177  175  176 1   
   178  175  177 1   
   179  175  178 1   
   180  181  182 1   
   181  181  183 1   
   182  184  185 1   
   183  184  186 1   
   184  187  188 1   
   185  187  189 1   
@<TRIPOS>SUBSTRUCTURE
     1 MOL         1 TEMP              0 ****  ****    0 ROOT
