@<TRIPOS>MOLECULE
MOL
  189   185     1     0     0
SMALL
resp


@<TRIPOS>ATOM
      1 C1         12.4830    4.6730   -3.1660 c3        1 MOL     -0.317045
      2 C2         12.0860    3.3670   -2.3080 c         1 MOL      0.644937
      3 O1         12.1420    2.2790   -2.8370 o         1 MOL     -0.582433
      4 H1         11.8450    5.5070   -2.8740 hc        1 MOL      0.086396
      5 H2         13.5250    4.9310   -2.9750 hc        1 MOL      0.086396
      6 H3         12.3480    4.4660   -4.2280 hc        1 MOL      0.086396
      7 N1         11.7110    3.5180   -1.0340 n         1 MOL     -0.320255
      8 C3         11.3440    2.3690   -0.2380 c3        1 MOL     -0.090436
      9 C4          9.8310    1.8770   -0.4530 c         1 MOL      0.707060
     10 O2          8.9390    2.6910   -0.6950 o         1 MOL     -0.737767
     11 C5         11.6820    2.6440    1.2030 c3        1 MOL     -0.326572
     12 C6         10.9930    3.8540    1.8310 c         1 MOL      0.925894
     13 O3         10.1850    4.5480    1.1820 o         1 MOL     -0.745748
     14 O4         11.3840    4.2760    2.9670 o         1 MOL     -0.745748
     15 H4         11.4120    4.4670   -0.8310 hn        1 MOL      0.158016
     16 H5         11.8770    1.4820   -0.5710 h1        1 MOL      0.096945
     17 H6         12.7220    2.9600    1.2050 hc        1 MOL      0.092903
     18 H7         11.4370    1.7540    1.7740 hc        1 MOL      0.092903
     19 N2          9.5700    0.6070   -0.3720 n         1 MOL     -0.502973
     20 C7          8.4330   -0.1040   -0.8880 c3        1 MOL      0.232429
     21 C8          7.3910   -0.2190    0.1730 c         1 MOL      0.410145
     22 O5          7.7400   -0.4810    1.3580 o         1 MOL     -0.538514
     23 C9          8.9560   -1.4270   -1.4540 c3        1 MOL     -0.410459
     24 C10         8.0510   -2.0480   -2.5590 c3        1 MOL      0.181188
     25 C11         8.7210   -3.3690   -3.0830 c3        1 MOL      0.049823
     26 C12         7.8910   -4.0480   -4.2060 c3        1 MOL     -0.092260
     27 N3          7.9240   -3.3730   -5.5290 n4        1 MOL     -0.158058
     28 H8         10.2110   -0.1080   -0.0480 hn        1 MOL      0.301555
     29 H9          8.0730    0.5550   -1.6780 h1        1 MOL      0.086804
     30 H10         9.0200   -2.1670   -0.6570 hc        1 MOL      0.114463
     31 H11         9.9390   -1.2990   -1.8890 hc        1 MOL      0.114463
     32 H12         7.9720   -1.3440   -3.3790 hc        1 MOL     -0.013861
     33 H13         7.0350   -2.3350   -2.2750 hc        1 MOL     -0.013861
     34 H14         8.8370   -4.1950   -2.3760 hc        1 MOL      0.021128
     35 H15         9.7140   -3.1810   -3.4950 hc        1 MOL      0.021128
     36 H16         6.8710   -4.1120   -3.8290 hx        1 MOL      0.099391
     37 H17         8.1680   -5.0910   -4.3360 hx        1 MOL      0.099391
     38 H18         7.2230   -3.8600   -6.0740 hn        1 MOL      0.194879
     39 H19         7.6720   -2.4000   -5.4890 hn        1 MOL      0.194879
     40 H20         8.7980   -3.5640   -6.0120 hn        1 MOL      0.194879
     41 N4          6.1400   -0.0120   -0.2250 n         1 MOL     -0.222297
     42 C13         4.8700    0.0290    0.4350 c3        1 MOL      0.136162
     43 C14         3.8960   -1.1140   -0.0910 c         1 MOL      0.345132
     44 O6          3.8640   -1.4170   -1.2900 o         1 MOL     -0.569706
     45 C15         4.2910    1.4200    0.3240 c3        1 MOL      0.017119
     46 C16         5.2900    2.5040    0.4890 c         1 MOL      0.613626
     47 O7          5.7900    2.9450   -0.5600 o         1 MOL     -0.742644
     48 O8          5.5830    3.0220    1.5830 o         1 MOL     -0.742644
     49 H21         5.9960    0.1600   -1.2170 hn        1 MOL      0.150884
     50 H22         5.0610   -0.2390    1.4750 h1        1 MOL      0.044683
     51 H23         3.4590    1.4530    1.0230 hc        1 MOL      0.035515
     52 H24         3.7950    1.6260   -0.6210 hc        1 MOL      0.035515
     53 N5          3.0520   -1.7060    0.7220 n         1 MOL     -0.079065
     54 C17         2.8840   -1.7160    2.1910 c3        1 MOL     -0.380868
     55 C18         2.2740   -2.9960    2.7500 c         1 MOL      0.687537
     56 O9          2.3460   -4.0490    2.1480 o         1 MOL     -0.560860
     57 H25         2.4970   -2.4010    0.2400 hn        1 MOL      0.116121
     58 H26         2.1930   -0.9170    2.4370 h1        1 MOL      0.136513
     59 H27         3.8330   -1.4090    2.6390 h1        1 MOL      0.136513
     60 N6          1.5860   -2.8750    3.8780 n         1 MOL     -0.441440
     61 C19         0.8710   -3.9730    4.5540 c3        1 MOL     -0.020599
     62 C20        -0.2910   -4.5810    3.6770 c         1 MOL      0.557292
     63 O10        -1.3070   -3.9390    3.5280 o         1 MOL     -0.484554
     64 C21         0.3520   -3.3330    5.8580 c3        1 MOL     -0.234506
     65 C22        -0.0570   -4.3340    6.9220 c         1 MOL      0.756223
     66 O11        -0.0410   -5.5730    6.6590 o         1 MOL     -0.675436
     67 O12        -0.3740   -3.9350    8.0370 o         1 MOL     -0.675436
     68 H28         1.3710   -1.9330    4.1860 hn        1 MOL      0.286523
     69 H29         1.6020   -4.7470    4.7830 h1        1 MOL      0.066937
     70 H30        -0.4580   -2.6290    5.6490 hc        1 MOL      0.072178
     71 H31         1.1620   -2.7580    6.3030 hc        1 MOL      0.072178
     72 N7         -0.0200   -5.7790    3.1560 n         1 MOL     -0.434201
     73 C23        -0.9080   -6.5380    2.2180 c3        1 MOL      0.007117
     74 C24        -0.9460   -6.0600    0.7660 c         1 MOL      0.395899
     75 O13        -1.8510   -6.3130   -0.0640 o         1 MOL     -0.558318
     76 H32         0.8840   -6.1870    3.3710 hn        1 MOL      0.287816
     77 H33        -1.8030   -6.8660    2.7340 h1        1 MOL      0.083133
     78 H34        -0.4010   -7.4980    2.0680 h1        1 MOL      0.083133
     79 N8          0.0550   -5.2760    0.4620 n         1 MOL     -0.127729
     80 C25         0.1220   -4.5250   -0.7480 c3        1 MOL      0.026284
     81 C26        -0.2740   -3.1030   -0.5710 c         1 MOL      0.459482
     82 O14         0.0960   -2.4040    0.3950 o         1 MOL     -0.498768
     83 C27         1.5500   -4.5980   -1.2670 c3        1 MOL      0.304336
     84 C28         1.9990   -6.0440   -1.6660 c3        1 MOL     -0.246172
     85 O15         1.6290   -3.8940   -2.4550 oh        1 MOL     -0.625501
     86 H35         0.7580   -5.0860    1.1600 hn        1 MOL      0.147381
     87 H36        -0.5680   -5.0180   -1.4370 h1        1 MOL      0.071920
     88 H37         2.2940   -4.2230   -0.5670 h1        1 MOL      0.060592
     89 H38         2.5530   -3.9320   -2.6930 ho        1 MOL      0.395864
     90 H39         2.8820   -6.1350   -2.2910 hc        1 MOL      0.045978
     91 H40         2.2880   -6.5320   -0.7300 hc        1 MOL      0.045978
     92 H41         1.1580   -6.6480   -2.0120 hc        1 MOL      0.045978
     93 N9         -1.0160   -2.4940   -1.4600 n         1 MOL     -0.283039
     94 C29        -1.3720   -1.0590   -1.5200 c3        1 MOL     -0.345820
     95 C30        -2.8320   -1.0240   -1.0520 c         1 MOL      0.765231
     96 O16        -3.1700   -0.3140   -0.1500 o         1 MOL     -0.554515
     97 C31        -1.1840   -0.4000   -2.8900 c3        1 MOL      0.366231
     98 C32        -0.1070   -0.9740   -3.8320 c3        1 MOL     -0.001806
     99 C33        -1.0740    1.0660   -2.6300 c3        1 MOL     -0.242658
    100 C34         1.2710   -0.7580   -3.3300 c3        1 MOL     -0.266990
    101 H42        -1.2670   -3.0330   -2.2690 hn        1 MOL      0.250632
    102 H43        -0.7110   -0.4950   -0.8600 h1        1 MOL      0.144153
    103 H44        -2.1100   -0.5430   -3.4500 hc        1 MOL     -0.093091
    104 H45        -0.3860   -0.6090   -4.8110 hc        1 MOL     -0.002760
    105 H46        -0.3470   -2.0380   -3.8730 hc        1 MOL     -0.002760
    106 H47        -1.9330    1.3760   -2.0270 hc        1 MOL      0.052817
    107 H48        -0.2120    1.1000   -1.9750 hc        1 MOL      0.052817
    108 H49        -0.9500    1.6740   -3.5180 hc        1 MOL      0.052817
    109 H50         1.5570    0.2970   -3.2530 hc        1 MOL      0.075292
    110 H51         1.4260   -1.0730   -2.2990 hc        1 MOL      0.075292
    111 H52         1.9900   -1.2810   -3.9680 hc        1 MOL      0.075292
    112 N10        -3.7200   -1.8590   -1.5760 n         1 MOL     -0.351534
    113 C35        -5.1480   -1.9890   -1.1960 c3        1 MOL     -0.479495
    114 C36        -6.1440   -1.8600   -2.3140 c         1 MOL      0.748711
    115 O17        -5.8240   -1.9530   -3.4690 o         1 MOL     -0.531829
    116 C37        -5.4180   -3.2210   -0.2810 c3        1 MOL      0.388470
    117 C38        -4.5970   -4.4750   -0.7760 c3        1 MOL     -0.356375
    118 O18        -5.0380   -2.9230    1.0730 oh        1 MOL     -0.641806
    119 H53        -3.4590   -2.5600   -2.2510 hn        1 MOL      0.245443
    120 H54        -5.3070   -1.0870   -0.6100 h1        1 MOL      0.166836
    121 H55        -6.4680   -3.5180   -0.2550 h1        1 MOL      0.060900
    122 H56        -4.1610   -2.5540    1.1400 ho        1 MOL      0.439593
    123 H57        -3.5530   -4.4880   -0.4590 hc        1 MOL      0.100318
    124 H58        -5.1370   -5.3550   -0.4160 hc        1 MOL      0.100318
    125 H59        -4.4910   -4.4780   -1.8560 hc        1 MOL      0.100318
    126 N11        -7.3960   -1.4610   -1.9920 n         1 MOL     -0.448606
    127 C39        -8.4860   -1.3050   -2.9350 c3        1 MOL     -0.222151
    128 C40        -9.0310    0.1250   -2.8770 c         1 MOL      0.683749
    129 O19        -9.6380    0.5990   -3.7990 o         1 MOL     -0.559701
    130 C41        -9.5510   -2.3570   -2.7350 c3        1 MOL      0.379563
    131 C42       -10.2870   -2.4840   -1.4050 c3        1 MOL     -0.180092
    132 O20        -9.0400   -3.5910   -3.1190 oh        1 MOL     -0.640392
    133 H60        -7.6760   -1.3500   -1.0290 hn        1 MOL      0.316920
    134 H61        -8.0510   -1.3290   -3.9290 h1        1 MOL      0.128851
    135 H62       -10.3300   -2.0300   -3.4180 h1        1 MOL     -0.023671
    136 H63        -8.8080   -3.5940   -4.0520 ho        1 MOL      0.415902
    137 H64        -9.6920   -2.0910   -0.5780 hc        1 MOL      0.061690
    138 H65       -11.2790   -2.0440   -1.4740 hc        1 MOL      0.061690
    139 H66       -10.5960   -3.5130   -1.2130 hc        1 MOL      0.061690
    140 N12        -8.9860    0.7730   -1.6710 n         1 MOL     -0.551107
    141 C43        -9.5720    2.1140   -1.4400 c3        1 MOL      0.249881
    142 C44        -8.6930    2.8510   -0.4620 c         1 MOL      0.460306
    143 O21        -8.0760    2.2710    0.4430 o         1 MOL     -0.476309
    144 C45       -10.9900    2.0730   -0.8730 c3        1 MOL     -0.359360
    145 C46       -11.1640    1.0650    0.3150 c3        1 MOL      0.261701
    146 C47       -12.4910    1.3490    0.8360 c3        1 MOL      0.117467
    147 C48       -12.9370    0.7310    2.1310 c3        1 MOL      0.012119
    148 N13       -14.4450    0.9020    2.2290 n4        1 MOL     -0.303875
    149 H67        -8.3450    0.4070   -0.9890 hn        1 MOL      0.226340
    150 H68        -9.6330    2.7630   -2.3080 h1        1 MOL      0.054469
    151 H69       -11.6210    1.7370   -1.6950 hc        1 MOL      0.090748
    152 H70       -11.2430    3.0960   -0.5970 hc        1 MOL      0.090748
    153 H71       -10.3430    1.1750    1.0270 hc        1 MOL     -0.058039
    154 H72       -11.1250    0.0320   -0.0120 hc        1 MOL     -0.058039
    155 H73       -13.1890    0.9490    0.0860 hc        1 MOL     -0.026128
    156 H74       -12.7190    2.4130    0.9730 hc        1 MOL     -0.026128
    157 H75       -12.4690    1.2810    2.9530 hx        1 MOL      0.081855
    158 H76       -12.6830   -0.3240    2.1120 hx        1 MOL      0.081855
    159 H77       -14.8240    0.6620    3.1340 hn        1 MOL      0.311064
    160 H78       -14.6610    1.8800    2.2290 hn        1 MOL      0.311064
    161 H79       -15.0000    0.3920    1.5480 hn        1 MOL      0.311064
    162 N14        -8.5260    4.1630   -0.5940 n         1 MOL     -0.519297
    163 C49        -7.9350    4.9360    0.5270 c3        1 MOL      0.284770
    164 C50        -6.4320    4.7240    0.7660 c         1 MOL      0.288656
    165 O22        -6.0800    4.5490    1.9010 o         1 MOL     -0.504652
    166 C51        -8.0720    6.4430    0.3480 c3        1 MOL     -0.104087
    167 C52        -7.7380    7.1720    1.6220 c3        1 MOL     -0.150612
    168 C53        -8.0050    8.6950    1.4570 c         1 MOL      0.704411
    169 O23        -9.1480    9.1110    1.7190 o         1 MOL     -0.680322
    170 O24        -7.0520    9.3980    1.0840 o         1 MOL     -0.680322
    171 H80        -8.8790    4.6370   -1.4150 hn        1 MOL      0.283192
    172 H81        -8.4000    4.6620    1.4700 h1        1 MOL      0.046915
    173 H82        -9.1380    6.5930    0.1550 hc        1 MOL      0.029973
    174 H83        -7.5000    6.7770   -0.5100 hc        1 MOL      0.029973
    175 H84        -6.6740    7.1830    1.8460 hc        1 MOL      0.039523
    176 H85        -8.2780    6.7690    2.4720 hc        1 MOL      0.039523
    177 N15        -5.4740    4.8300   -0.1760 n         1 MOL     -0.253373
    178 C54        -5.3970    5.2760   -1.5920 c3        1 MOL     -0.053186
    179 H86        -4.6710    6.0850   -1.6780 h1        1 MOL      0.053625
    180 H87        -5.0860    4.4420   -2.2200 h1        1 MOL      0.053625
    181 H88        -6.3750    5.6300   -1.9150 h1        1 MOL      0.053625
    182 H89        -4.5230    4.7120    0.1370 hn        1 MOL      0.270944
    183 Ca1         7.6550    4.5020    0.5550 Ca        1 MOL      1.725923
    184 O25         8.2270    2.4790    2.3170 oh        1 MOL     -0.823360
    185 H90         7.4600    1.9510    2.5390 ho        1 MOL      0.409637
    186 H91         8.9600    2.0480    2.7620 ho        1 MOL      0.409637
    187 O26         7.8760    5.4430    3.0580 oh        1 MOL     -0.823360
    188 H92         7.1050    5.9810    3.2630 ho        1 MOL      0.409637
    189 H93         8.5790    5.8360    3.5840 ho        1 MOL      0.409637
@<TRIPOS>BOND
     1    1    2 1   
     2    1    4 1   
     3    1    5 1   
     4    1    6 1   
     5    2    3 2   
     6    2    7 1   
     7    7    8 1   
     8    7   15 1   
     9    8    9 1   
    10    8   11 1   
    11    8   16 1   
    12    9   10 2   
    13    9   19 1   
    14   11   12 1   
    15   11   17 1   
    16   11   18 1   
    17   12   13 1   
    18   12   14 1   
    19   19   20 1   
    20   19   28 1   
    21   20   21 1   
    22   20   23 1   
    23   20   29 1   
    24   21   22 2   
    25   21   41 1   
    26   23   24 1   
    27   23   30 1   
    28   23   31 1   
    29   24   25 1   
    30   24   32 1   
    31   24   33 1   
    32   25   26 1   
    33   25   34 1   
    34   25   35 1   
    35   26   27 1   
    36   26   36 1   
    37   26   37 1   
    38   27   38 1   
    39   27   39 1   
    40   27   40 1   
    41   41   42 1   
    42   41   49 1   
    43   42   43 1   
    44   42   45 1   
    45   42   50 1   
    46   43   44 2   
    47   43   53 1   
    48   45   46 1   
    49   45   51 1   
    50   45   52 1   
    51   46   47 1   
    52   46   48 1   
    53   53   54 1   
    54   53   57 1   
    55   54   55 1   
    56   54   58 1   
    57   54   59 1   
    58   55   56 2   
    59   55   60 1   
    60   60   61 1   
    61   60   68 1   
    62   61   62 1   
    63   61   64 1   
    64   61   69 1   
    65   62   63 2   
    66   62   72 1   
    67   64   65 1   
    68   64   70 1   
    69   64   71 1   
    70   65   66 1   
    71   65   67 1   
    72   72   73 1   
    73   72   76 1   
    74   73   74 1   
    75   73   77 1   
    76   73   78 1   
    77   74   75 2   
    78   74   79 1   
    79   79   80 1   
    80   79   86 1   
    81   80   81 1   
    82   80   83 1   
    83   80   87 1   
    84   81   82 2   
    85   81   93 1   
    86   83   84 1   
    87   83   85 1   
    88   83   88 1   
    89   84   90 1   
    90   84   91 1   
    91   84   92 1   
    92   85   89 1   
    93   93   94 1   
    94   93  101 1   
    95   94   95 1   
    96   94   97 1   
    97   94  102 1   
    98   95   96 2   
    99   95  112 1   
   100   97   98 1   
   101   97   99 1   
   102   97  103 1   
   103   98  100 1   
   104   98  104 1   
   105   98  105 1   
   106   99  106 1   
   107   99  107 1   
   108   99  108 1   
   109  100  109 1   
   110  100  110 1   
   111  100  111 1   
   112  112  113 1   
   113  112  119 1   
   114  113  114 1   
   115  113  116 1   
   116  113  120 1   
   117  114  115 2   
   118  114  126 1   
   119  116  117 1   
   120  116  118 1   
   121  116  121 1   
   122  117  123 1   
   123  117  124 1   
   124  117  125 1   
   125  118  122 1   
   126  126  127 1   
   127  126  133 1   
   128  127  128 1   
   129  127  130 1   
   130  127  134 1   
   131  128  129 2   
   132  128  140 1   
   133  130  131 1   
   134  130  132 1   
   135  130  135 1   
   136  131  137 1   
   137  131  138 1   
   138  131  139 1   
   139  132  136 1   
   140  140  141 1   
   141  140  149 1   
   142  141  142 1   
   143  141  144 1   
   144  141  150 1   
   145  142  143 2   
   146  142  162 1   
   147  144  145 1   
   148  144  151 1   
   149  144  152 1   
   150  145  146 1   
   151  145  153 1   
   152  145  154 1   
   153  146  147 1   
   154  146  155 1   
   155  146  156 1   
   156  147  148 1   
   157  147  157 1   
   158  147  158 1   
   159  148  159 1   
   160  148  160 1   
   161  148  161 1   
   162  162  163 1   
   163  162  171 1   
   164  163  164 1   
   165  163  166 1   
   166  163  172 1   
   167  164  165 2   
   168  164  177 1   
   169  166  167 1   
   170  166  173 1   
   171  166  174 1   
   172  167  168 1   
   173  167  175 1   
   174  167  176 1   
   175  168  169 1   
   176  168  170 1   
   177  177  178 1   
   178  177  182 1   
   179  178  179 1   
   180  178  180 1   
   181  178  181 1   
   182  184  185 1   
   183  184  186 1   
   184  187  188 1   
   185  187  189 1   
@<TRIPOS>SUBSTRUCTURE
     1 MOL         1 TEMP              0 ****  ****    0 ROOT
