@<TRIPOS>MOLECULE
MOL
  181   177     1     0     0
SMALL
resp


@<TRIPOS>ATOM
      1 C1        -11.7400    2.3160    4.1930 c3        1 MOL     -0.532295
      2 C2        -11.2210    2.7130    2.7960 c         1 MOL      0.894704
      3 O1        -11.2180    3.8140    2.3510 o         1 MOL     -0.625854
      4 H1        -10.8980    2.0400    4.8280 hc        1 MOL      0.128558
      5 H2        -12.2700    3.1580    4.6390 hc        1 MOL      0.128558
      6 H3        -12.4190    1.4670    4.1020 hc        1 MOL      0.128558
      7 N1        -10.8960    1.7420    1.9470 n         1 MOL     -0.887477
      8 C3        -10.9700    0.3100    2.1070 c3        1 MOL      0.568067
      9 C4        -11.1510   -0.4160    0.6990 c         1 MOL      0.407021
     10 O2        -11.2090    0.3030   -0.3030 o         1 MOL     -0.448638
     11 C5         -9.6920   -0.1660    2.7950 c3        1 MOL     -0.055206
     12 C6         -8.4030   -0.1190    2.0350 c         1 MOL      0.888934
     13 O3         -8.0740   -1.1400    1.4790 o         1 MOL     -0.751061
     14 O4         -7.6600    0.8570    2.1150 o         1 MOL     -0.751061
     15 H4        -10.6250    2.1300    1.0550 hn        1 MOL      0.427103
     16 H5        -11.8360    0.0660    2.7210 h1        1 MOL     -0.106319
     17 H6         -9.9720   -1.1610    3.1510 hc        1 MOL     -0.083996
     18 H7         -9.5540    0.4590    3.6830 hc        1 MOL     -0.083996
     19 N2        -11.2240   -1.7520    0.7040 n         1 MOL     -0.581501
     20 C7        -11.4270   -2.6040   -0.4910 c3        1 MOL      0.271928
     21 C8        -10.3430   -2.3770   -1.5890 c         1 MOL      0.396144
     22 O5        -10.6880   -2.4590   -2.8250 o         1 MOL     -0.541406
     23 C9        -12.9390   -2.5990   -0.8700 c3        1 MOL     -0.358614
     24 H8        -11.0870   -2.1750    1.6050 hn        1 MOL      0.321714
     25 H9        -11.3100   -3.6030   -0.0870 h1        1 MOL      0.014966
     26 H10       -13.6080   -2.6140   -0.0070 hc        1 MOL      0.100763
     27 H11       -13.1730   -1.6700   -1.3730 hc        1 MOL      0.100763
     28 H12       -13.1330   -3.4010   -1.5800 hc        1 MOL      0.100763
     29 N3         -9.1330   -2.1800   -1.1570 n         1 MOL     -0.219268
     30 C10        -8.0570   -1.9410   -2.1920 c3        1 MOL     -0.021669
     31 C11        -6.6880   -2.6180   -1.8810 c         1 MOL      0.446622
     32 O6         -6.5310   -2.9210   -0.6970 o         1 MOL     -0.542337
     33 C12        -8.0220   -0.5120   -2.7710 c3        1 MOL     -0.450506
     34 C13        -7.6190    0.5580   -1.7450 c         1 MOL      0.728363
     35 O7         -7.8730    1.7620   -1.8760 o         1 MOL     -0.681216
     36 O8         -7.0170    0.1930   -0.7070 o         1 MOL     -0.681216
     37 H13        -8.9330   -1.8760   -0.2100 hn        1 MOL      0.136565
     38 H14        -8.2860   -2.5030   -3.1060 h1        1 MOL      0.071740
     39 H15        -9.0540   -0.2780   -3.0230 hc        1 MOL      0.158925
     40 H16        -7.4730   -0.2810   -3.6890 hc        1 MOL      0.158925
     41 N4         -5.6770   -2.6590   -2.7530 n         1 MOL     -0.298505
     42 C14        -4.4360   -3.3980   -2.5460 c3        1 MOL     -0.337910
     43 C15        -3.4860   -2.6880   -1.6330 c         1 MOL      0.688491
     44 O9         -3.7810   -1.7130   -0.9780 o         1 MOL     -0.631188
     45 H17        -5.9050   -2.3100   -3.6720 hn        1 MOL      0.293773
     46 H18        -3.9990   -3.4240   -3.5450 h1        1 MOL      0.158052
     47 H19        -4.6000   -4.4010   -2.1650 h1        1 MOL      0.158052
     48 N5         -2.1820   -2.9010   -1.9200 n         1 MOL     -0.470181
     49 C16        -1.0280   -2.1590   -1.4380 c3        1 MOL     -0.010909
     50 C17        -0.7450   -0.8240   -2.2060 c         1 MOL      0.624973
     51 O10        -0.3490   -0.7630   -3.4120 o         1 MOL     -0.553764
     52 C18         0.0720   -3.2060   -1.5760 c3        1 MOL     -0.311379
     53 C19         1.3200   -3.0160   -0.7850 c         1 MOL      0.607334
     54 N6          1.6320   -3.9270    0.0520 n         1 MOL     -0.604620
     55 O11         2.0120   -2.0140   -0.9320 o         1 MOL     -0.526407
     56 H20        -1.9270   -3.6020   -2.5980 hn        1 MOL      0.270684
     57 H21        -1.0750   -1.8640   -0.3810 h1        1 MOL      0.118119
     58 H22         0.3700   -3.3260   -2.6250 hc        1 MOL      0.092091
     59 H23        -0.3130   -4.1900   -1.3100 hc        1 MOL      0.092091
     60 H24         1.1600   -4.8090    0.1560 hn        1 MOL      0.307927
     61 H25         2.4660   -3.7440    0.5980 hn        1 MOL      0.307927
     62 N7         -1.0510    0.3020   -1.5340 n         1 MOL     -0.450438
     63 C20        -0.9020    1.7100   -1.9930 c3        1 MOL      0.122436
     64 C21        -1.2100    2.6530   -0.7970 c         1 MOL      0.414025
     65 O12        -1.7520    2.1600    0.1710 o         1 MOL     -0.518783
     66 H26        -1.4800    0.1410   -0.6310 hn        1 MOL      0.309727
     67 H27        -1.5560    1.9680   -2.8240 h1        1 MOL      0.067152
     68 H28         0.1030    1.9140   -2.3670 h1        1 MOL      0.067152
     69 N8         -0.9040    3.9520   -0.8550 n         1 MOL     -0.308608
     70 C22        -0.3270    4.7640   -2.0030 c3        1 MOL     -0.147441
     71 C23         1.1350    4.3970   -2.3850 c         1 MOL      0.572747
     72 O13         1.5090    4.3910   -3.5760 o         1 MOL     -0.549256
     73 C24        -0.4960    6.2710   -1.6690 c3        1 MOL      0.127773
     74 C25        -1.9760    6.5810   -1.5460 c3        1 MOL     -0.192256
     75 O14         0.0280    6.6970   -0.4100 oh        1 MOL     -0.588716
     76 H29        -1.1230    4.4860   -0.0200 hn        1 MOL      0.307025
     77 H30        -0.9010    4.5380   -2.8930 h1        1 MOL      0.121434
     78 H31        -0.0750    6.8330   -2.5000 h1        1 MOL      0.071893
     79 H32        -0.0560    7.6500   -0.4710 ho        1 MOL      0.409387
     80 H33        -2.2060    7.5000   -1.0090 hc        1 MOL      0.057568
     81 H34        -2.5890    6.6890   -2.4370 hc        1 MOL      0.057568
     82 H35        -2.5000    5.8350   -0.9440 hc        1 MOL      0.057568
     83 N9          1.8490    3.8670   -1.3790 n         1 MOL     -0.522881
     84 C26         3.1070    3.0920   -1.4710 c3        1 MOL      0.184440
     85 C27         2.8960    1.6570   -0.9850 c         1 MOL      0.514735
     86 O15         1.9020    1.3380   -0.3440 o         1 MOL     -0.586304
     87 C28         4.2930    3.7660   -0.7260 c3        1 MOL      0.224715
     88 C29         3.7360    4.4680    0.5760 c3        1 MOL      0.003658
     89 C30         5.0500    4.7060   -1.6370 c3        1 MOL     -0.382368
     90 C31         4.7280    4.6620    1.7820 c3        1 MOL     -0.213517
     91 H36         1.3870    3.8430   -0.4790 hn        1 MOL      0.271476
     92 H37         3.3380    2.9320   -2.5280 h1        1 MOL      0.087637
     93 H38         4.9370    2.9280   -0.4490 hc        1 MOL      0.012351
     94 H39         2.8880    3.8450    0.8530 hc        1 MOL      0.000068
     95 H40         3.4480    5.4920    0.3480 hc        1 MOL      0.000068
     96 H41         4.3580    5.4720   -2.0020 hc        1 MOL      0.086832
     97 H42         5.8810    5.1130   -1.0700 hc        1 MOL      0.086832
     98 H43         5.3670    4.1340   -2.5060 hc        1 MOL      0.086832
     99 H44         5.4470    5.4190    1.4780 hc        1 MOL      0.048480
    100 H45         4.1000    4.9020    2.6470 hc        1 MOL      0.048480
    101 H46         5.1710    3.6850    1.9840 hc        1 MOL      0.048480
    102 N10         3.6160    0.6580   -1.4330 n         1 MOL     -0.394845
    103 C32         4.8470    0.7310   -2.1880 c3        1 MOL      0.017034
    104 C33         5.6910   -0.5130   -1.7740 c         1 MOL      0.682674
    105 O16         5.2810   -1.6530   -1.6260 o         1 MOL     -0.559979
    106 C34         4.6230    0.7510   -3.7100 c3        1 MOL     -0.251316
    107 C35         5.9140    0.6820   -4.3810 c         1 MOL      0.716436
    108 O17         6.0340   -0.1520   -5.3200 o         1 MOL     -0.730074
    109 O18         6.7990    1.4820   -3.9630 o         1 MOL     -0.730074
    110 H47         3.4440   -0.2430   -1.0220 hn        1 MOL      0.283918
    111 H48         5.4050    1.6340   -1.9700 h1        1 MOL     -0.024869
    112 H49         4.1110    1.6600   -4.0300 hc        1 MOL      0.075449
    113 H50         4.0350   -0.1330   -3.9350 hc        1 MOL      0.075449
    114 N11         6.9010   -0.2430   -1.4260 n         1 MOL     -0.531123
    115 C36         7.9200   -1.0210   -0.8030 c3        1 MOL      0.228096
    116 C37         8.9320   -0.0510   -0.1710 c         1 MOL      0.131961
    117 O19         9.2720    0.9630   -0.8030 o         1 MOL     -0.472641
    118 C38         8.5960   -1.8700   -1.8830 c3        1 MOL     -0.248185
    119 C39         9.6480   -2.7960   -1.2790 ca        1 MOL      0.034501
    120 C40        10.9630   -2.4070   -1.2120 ca        1 MOL     -0.125286
    121 C41         9.2370   -4.0000   -0.7200 ca        1 MOL     -0.125286
    122 C42        11.9140   -3.2280   -0.5360 ca        1 MOL     -0.156115
    123 C43        10.0670   -4.8290   -0.0430 ca        1 MOL     -0.156115
    124 C44        11.4430   -4.4260    0.0360 ca        1 MOL     -0.083515
    125 H51         7.2450    0.7040   -1.5340 hn        1 MOL      0.314765
    126 H52         7.5250   -1.6940   -0.0380 h1        1 MOL      0.067936
    127 H53         9.0580   -1.1550   -2.5490 hc        1 MOL      0.137112
    128 H54         7.9250   -2.4440   -2.5290 hc        1 MOL      0.137112
    129 H55        11.2360   -1.4660   -1.6740 ha        1 MOL      0.121417
    130 H56         8.1820   -4.2230   -0.6600 ha        1 MOL      0.121417
    131 H57        12.9320   -2.8720   -0.4230 ha        1 MOL      0.118626
    132 H58         9.8140   -5.7200    0.5040 ha        1 MOL      0.118626
    133 H59        12.1980   -5.1380    0.3560 ha        1 MOL      0.065139
    134 N12         9.5330   -0.4030    0.9790 n         1 MOL      0.149813
    135 C45         9.0610   -1.4360    1.8990 c3        1 MOL      0.176238
    136 C46         7.6850   -1.1690    2.5340 c         1 MOL      0.233866
    137 O20         7.0540   -2.1130    3.0620 o         1 MOL     -0.512781
    138 C47        10.1270   -1.4810    2.9830 c3        1 MOL     -0.330873
    139 C48        11.3640   -0.6790    2.5150 c3        1 MOL      0.027840
    140 C49        10.7100    0.2810    1.5660 c3        1 MOL     -0.148856
    141 H60         8.9890   -2.3550    1.3080 h1        1 MOL      0.045435
    142 H61         9.6110   -1.0430    3.8430 hc        1 MOL      0.106594
    143 H62        10.3270   -2.5290    3.1940 hc        1 MOL      0.106594
    144 H63        11.8190   -0.1940    3.3820 hc        1 MOL      0.018895
    145 H64        12.0550   -1.2420    1.8990 hc        1 MOL      0.018895
    146 H65        10.2450    1.1270    2.0720 h1        1 MOL      0.072410
    147 H66        11.3990    0.6330    0.8090 h1        1 MOL      0.072410
    148 N13         7.1790    0.0450    2.4510 n         1 MOL     -0.221343
    149 C50         5.9760    0.4520    3.1410 c3        1 MOL      0.341073
    150 C51         6.1830    1.6900    3.8960 c         1 MOL      0.282081
    151 O21         7.1630    2.4220    3.6700 o         1 MOL     -0.557269
    152 C52         4.7940    0.4770    2.1110 c3        1 MOL     -0.142054
    153 C53         4.4570   -0.9510    1.5490 c3        1 MOL     -0.053419
    154 C54         4.0380   -1.9670    2.5760 c         1 MOL      0.746006
    155 O22         3.7960   -3.0870    2.0730 o         1 MOL     -0.725735
    156 O23         3.5790   -1.6990    3.7160 o         1 MOL     -0.725735
    157 H67         7.8750    0.7000    2.1210 hn        1 MOL      0.191645
    158 H68         5.6510   -0.3200    3.8310 h1        1 MOL      0.044725
    159 H69         4.9800    1.1710    1.2930 hc        1 MOL      0.011143
    160 H70         3.9440    0.8690    2.6700 hc        1 MOL      0.011143
    161 H71         5.3480   -1.3540    1.0520 hc        1 MOL      0.017409
    162 H72         3.6960   -0.7300    0.8090 hc        1 MOL      0.017409
    163 N14         5.4380    1.9880    5.0030 n         1 MOL     -0.299884
    164 C55         4.5710    1.1290    5.7630 c3        1 MOL     -0.031926
    165 H73         4.8880    1.1250    6.8070 h1        1 MOL      0.039308
    166 H74         3.5460    1.4930    5.6970 h1        1 MOL      0.039308
    167 H75         4.6240    0.1150    5.3650 h1        1 MOL      0.039308
    168 H76         5.5020    2.9140    5.3830 hn        1 MOL      0.254528
    169 Ca1        -5.5990   -1.0130    0.9610 Ca        1 MOL      1.688933
    170 O24        -3.5180   -2.2850    1.8840 oh        1 MOL     -0.799408
    171 H77        -3.5340   -3.2280    2.0580 ho        1 MOL      0.397198
    172 H78        -2.6820   -1.9980    2.2420 ho        1 MOL      0.397198
    173 O25        -5.3950   -0.5580    3.6760 oh        1 MOL     -0.799408
    174 H79        -6.0550   -1.1190    4.0730 ho        1 MOL      0.397198
    175 H80        -4.6890   -0.5150    4.3240 ho        1 MOL      0.397198
    176 O26        -6.2440   -3.0260    2.5630 oh        1 MOL     -0.799408
    177 H81        -5.9510   -3.9350    2.5100 ho        1 MOL      0.397198
    178 H82        -6.9240   -3.0310    3.2320 ho        1 MOL      0.397198
    179 O27        -3.6850    0.8560    1.6520 oh        1 MOL     -0.799408
    180 H83        -3.1370    1.3720    1.0590 ho        1 MOL      0.397198
    181 H84        -3.5180    1.2310    2.5190 ho        1 MOL      0.397198
@<TRIPOS>BOND
     1    1    2 1   
     2    1    4 1   
     3    1    5 1   
     4    1    6 1   
     5    2    3 2   
     6    2    7 1   
     7    7    8 1   
     8    7   15 1   
     9    8    9 1   
    10    8   11 1   
    11    8   16 1   
    12    9   10 2   
    13    9   19 1   
    14   11   12 1   
    15   11   17 1   
    16   11   18 1   
    17   12   13 1   
    18   12   14 1   
    19   19   20 1   
    20   19   24 1   
    21   20   21 1   
    22   20   23 1   
    23   20   25 1   
    24   21   22 2   
    25   21   29 1   
    26   23   26 1   
    27   23   27 1   
    28   23   28 1   
    29   29   30 1   
    30   29   37 1   
    31   30   31 1   
    32   30   33 1   
    33   30   38 1   
    34   31   32 2   
    35   31   41 1   
    36   33   34 1   
    37   33   39 1   
    38   33   40 1   
    39   34   35 1   
    40   34   36 1   
    41   41   42 1   
    42   41   45 1   
    43   42   43 1   
    44   42   46 1   
    45   42   47 1   
    46   43   44 2   
    47   43   48 1   
    48   48   49 1   
    49   48   56 1   
    50   49   50 1   
    51   49   52 1   
    52   49   57 1   
    53   50   51 2   
    54   50   62 1   
    55   52   53 1   
    56   52   58 1   
    57   52   59 1   
    58   53   54 1   
    59   53   55 2   
    60   54   60 1   
    61   54   61 1   
    62   62   63 1   
    63   62   66 1   
    64   63   64 1   
    65   63   67 1   
    66   63   68 1   
    67   64   65 2   
    68   64   69 1   
    69   69   70 1   
    70   69   76 1   
    71   70   71 1   
    72   70   73 1   
    73   70   77 1   
    74   71   72 2   
    75   71   83 1   
    76   73   74 1   
    77   73   75 1   
    78   73   78 1   
    79   74   80 1   
    80   74   81 1   
    81   74   82 1   
    82   75   79 1   
    83   83   84 1   
    84   83   91 1   
    85   84   85 1   
    86   84   87 1   
    87   84   92 1   
    88   85   86 2   
    89   85  102 1   
    90   87   88 1   
    91   87   89 1   
    92   87   93 1   
    93   88   90 1   
    94   88   94 1   
    95   88   95 1   
    96   89   96 1   
    97   89   97 1   
    98   89   98 1   
    99   90   99 1   
   100   90  100 1   
   101   90  101 1   
   102  102  103 1   
   103  102  110 1   
   104  103  104 1   
   105  103  106 1   
   106  103  111 1   
   107  104  105 2   
   108  104  114 1   
   109  106  107 1   
   110  106  112 1   
   111  106  113 1   
   112  107  108 1   
   113  107  109 1   
   114  114  115 1   
   115  114  125 1   
   116  115  116 1   
   117  115  118 1   
   118  115  126 1   
   119  116  117 2   
   120  116  134 1   
   121  118  119 1   
   122  118  127 1   
   123  118  128 1   
   124  119  120 ar  
   125  119  121 ar  
   126  120  122 ar  
   127  120  129 1   
   128  121  123 ar  
   129  121  130 1   
   130  122  124 ar  
   131  122  131 1   
   132  123  124 ar  
   133  123  132 1   
   134  124  133 1   
   135  134  135 1   
   136  134  140 1   
   137  135  136 1   
   138  135  138 1   
   139  135  141 1   
   140  136  137 2   
   141  136  148 1   
   142  138  139 1   
   143  138  142 1   
   144  138  143 1   
   145  139  140 1   
   146  139  144 1   
   147  139  145 1   
   148  140  146 1   
   149  140  147 1   
   150  148  149 1   
   151  148  157 1   
   152  149  150 1   
   153  149  152 1   
   154  149  158 1   
   155  150  151 2   
   156  150  163 1   
   157  152  153 1   
   158  152  159 1   
   159  152  160 1   
   160  153  154 1   
   161  153  161 1   
   162  153  162 1   
   163  154  155 1   
   164  154  156 1   
   165  163  164 1   
   166  163  168 1   
   167  164  165 1   
   168  164  166 1   
   169  164  167 1   
   170  170  171 1   
   171  170  172 1   
   172  173  174 1   
   173  173  175 1   
   174  176  177 1   
   175  176  178 1   
   176  179  180 1   
   177  179  181 1   
@<TRIPOS>SUBSTRUCTURE
     1 MOL         1 TEMP              0 ****  ****    0 ROOT
