@<TRIPOS>MOLECULE
MOL
  182   178     1     0     0
SMALL
resp


@<TRIPOS>ATOM
      1 C1         -0.9510   -4.8420    5.6360 c3        1 MOL     -0.336209
      2 C2         -0.6670   -4.5240    4.2160 c         1 MOL      0.773279
      3 O1         -1.2910   -4.9860    3.2690 o         1 MOL     -0.623614
      4 H1         -0.0270   -5.1360    6.1340 hc        1 MOL      0.081861
      5 H2         -1.3650   -3.9630    6.1290 hc        1 MOL      0.081861
      6 H3         -1.6680   -5.6610    5.6890 hc        1 MOL      0.081861
      7 N1          0.3010   -3.6850    4.0870 n         1 MOL     -0.530587
      8 C3          0.7820   -3.3030    2.7080 c3        1 MOL      0.000416
      9 C4          1.3100   -4.4580    1.8520 c         1 MOL      0.573101
     10 O2          2.2620   -5.1990    2.1160 o         1 MOL     -0.537414
     11 C5          1.8110   -2.2250    2.8290 c3        1 MOL     -0.236099
     12 C6          1.9880   -1.5720    1.5320 c         1 MOL      0.877487
     13 O3          2.7990   -0.6450    1.4080 o         1 MOL     -0.782756
     14 O4          1.2480   -1.8080    0.5420 o         1 MOL     -0.782756
     15 H4          0.8600   -3.4100    4.8720 hn        1 MOL      0.320884
     16 H5         -0.0370   -2.8570    2.1480 h1        1 MOL      0.015580
     17 H6          2.8230   -2.6190    2.9620 hc        1 MOL      0.058516
     18 H7          1.5190   -1.4780    3.5770 hc        1 MOL      0.058516
     19 N2          0.6300   -4.5920    0.6850 n         1 MOL     -0.229460
     20 C7          0.9350   -5.6120   -0.3010 c3        1 MOL     -0.087660
     21 C8          2.3010   -5.6620   -0.9660 c         1 MOL      0.484177
     22 O5          2.8810   -6.7290   -1.1250 o         1 MOL     -0.526745
     23 C9         -0.2450   -5.6660   -1.2510 c3        1 MOL     -0.189131
     24 C10        -0.5020   -4.2830   -1.9030 c3        1 MOL      0.136286
     25 C11        -1.7450   -4.3820   -2.9370 c3        1 MOL     -0.322034
     26 C12        -1.9750   -3.1110   -3.7310 c3        1 MOL      0.369871
     27 N3         -3.1380   -3.2890   -4.6070 n4        1 MOL     -0.515117
     28 H8         -0.0070   -3.8550    0.4180 hn        1 MOL      0.188761
     29 H9          0.7690   -6.5020    0.3070 h1        1 MOL      0.109187
     30 H10        -1.1770   -5.9350   -0.7670 hc        1 MOL      0.083870
     31 H11        -0.0100   -6.4170   -2.0030 hc        1 MOL      0.083870
     32 H12         0.3660   -3.9480   -2.4830 hc        1 MOL      0.050782
     33 H13        -0.7000   -3.4850   -1.1880 hc        1 MOL      0.050782
     34 H14        -2.6660   -4.5570   -2.3810 hc        1 MOL      0.075120
     35 H15        -1.5820   -5.1170   -3.7180 hc        1 MOL      0.075120
     36 H16        -1.0580   -2.8810   -4.2740 hx        1 MOL     -0.023581
     37 H17        -2.0240   -2.1780   -3.1740 hx        1 MOL     -0.023581
     38 H18        -2.9300   -3.9900   -5.2980 hn        1 MOL      0.357103
     39 H19        -3.9440   -3.6500   -4.1190 hn        1 MOL      0.357103
     40 H20        -3.4030   -2.4260   -5.0480 hn        1 MOL      0.357103
     41 N4          2.7650   -4.4630   -1.2230 n         1 MOL     -0.216269
     42 C13         3.8380   -4.2400   -2.2360 c3        1 MOL     -0.030970
     43 C14         5.1880   -4.1150   -1.6410 c         1 MOL      0.452544
     44 O6          6.1620   -4.2940   -2.4160 o         1 MOL     -0.519592
     45 C15         3.3860   -3.1280   -3.2060 c3        1 MOL     -0.141427
     46 C16         3.1340   -1.7860   -2.5040 c         1 MOL      0.634808
     47 O7          2.4450   -0.9100   -3.0910 o         1 MOL     -0.700439
     48 O8          3.5070   -1.5620   -1.2990 o         1 MOL     -0.700439
     49 H21         2.1610   -3.7210   -0.8860 hn        1 MOL      0.048783
     50 H22         3.7450   -5.2050   -2.7320 h1        1 MOL      0.099609
     51 H23         2.4270   -3.4170   -3.6460 hc        1 MOL      0.065772
     52 H24         4.1660   -3.0570   -3.9660 hc        1 MOL      0.065772
     53 N5          5.2840   -3.6920   -0.3790 n         1 MOL     -0.251181
     54 C17         6.5540   -3.5160    0.2510 c3        1 MOL     -0.202190
     55 C18         7.0800   -2.1090   -0.0710 c         1 MOL      0.558350
     56 O9          8.2250   -1.7990    0.2760 o         1 MOL     -0.549371
     57 H25         4.4420   -3.4750    0.1420 hn        1 MOL      0.291572
     58 H26         7.2250   -4.3420    0.0230 h1        1 MOL      0.128299
     59 H27         6.3540   -3.6160    1.3110 h1        1 MOL      0.128299
     60 N6          6.3670   -1.1610   -0.6940 n         1 MOL     -0.449855
     61 C19         6.8540    0.2150   -1.0230 c3        1 MOL      0.138801
     62 C20         5.8480    1.3340   -0.8180 c         1 MOL      0.597411
     63 O10         4.6400    1.1800   -0.6520 o         1 MOL     -0.591466
     64 C21         7.4740    0.3270   -2.4080 c3        1 MOL     -0.230904
     65 C22         8.7330   -0.4760   -2.5690 c         1 MOL      0.647545
     66 N7          9.8160    0.1140   -2.7850 n         1 MOL     -0.734873
     67 O11         8.7720   -1.6850   -2.6410 o         1 MOL     -0.510497
     68 H28         5.3860   -1.3370   -0.8330 hn        1 MOL      0.345199
     69 H29         7.6480    0.3540   -0.2940 h1        1 MOL      0.033765
     70 H30         7.5420    1.3880   -2.6450 hc        1 MOL      0.049926
     71 H31         6.7670   -0.0340   -3.1550 hc        1 MOL      0.049926
     72 H32         9.9720    1.1070   -2.6850 hn        1 MOL      0.342934
     73 H33        10.5850   -0.5340   -2.8630 hn        1 MOL      0.342934
     74 N8          6.3230    2.5870   -0.8320 n         1 MOL     -0.363882
     75 C23         5.5830    3.8110   -0.9090 c3        1 MOL     -0.185699
     76 C24         4.5560    3.9630    0.1960 c         1 MOL      0.609876
     77 O12         4.8140    3.6530    1.3510 o         1 MOL     -0.497669
     78 H34         7.3260    2.6350   -0.6930 hn        1 MOL      0.265984
     79 H35         5.0100    3.9630   -1.8220 h1        1 MOL      0.091770
     80 H36         6.3190    4.5930   -0.7020 h1        1 MOL      0.091770
     81 N9          3.4560    4.5620   -0.2330 n         1 MOL     -0.535423
     82 C25         2.2990    4.7670    0.6210 c3        1 MOL      0.282521
     83 C26         1.7200    3.4680    1.2240 c         1 MOL      0.238791
     84 O13         2.1760    2.3830    0.8760 o         1 MOL     -0.311521
     85 C27         1.2180    5.5640   -0.1370 c3        1 MOL     -0.234299
     86 C28         1.4990    7.0240   -0.4550 ca        1 MOL      0.197839
     87 C29         1.6630    8.0290    0.4980 ca        1 MOL     -0.248210
     88 C30         1.3950    7.4260   -1.8680 ca        1 MOL     -0.248210
     89 C31         1.7480    9.3890    0.0370 ca        1 MOL     -0.237912
     90 C32         1.5240    8.7850   -2.3120 ca        1 MOL     -0.237912
     91 C33         1.8220    9.7710   -1.3520 ca        1 MOL      0.345189
     92 O14         2.1610   11.0160   -1.7650 oh        1 MOL     -0.488940
     93 H37         3.4360    4.9970   -1.1440 hn        1 MOL      0.239339
     94 H38         2.6550    5.3290    1.4830 h1        1 MOL      0.050751
     95 H39         0.2400    5.5570    0.3310 hc        1 MOL      0.054884
     96 H40         1.0470    5.0100   -1.0650 hc        1 MOL      0.054884
     97 H41         1.6440    7.9050    1.5700 ha        1 MOL      0.158665
     98 H42         1.1220    6.6320   -2.5410 ha        1 MOL      0.158665
     99 H43         1.9510   10.1450    0.7890 ha        1 MOL      0.157002
    100 H44         1.5160    8.9720   -3.3790 ha        1 MOL      0.157002
    101 H45         2.0790   11.1700   -2.7100 ho        1 MOL      0.386284
    102 N10         0.8750    3.6320    2.2760 n         1 MOL     -0.514286
    103 C34         0.4810    2.5070    3.1690 c3        1 MOL      0.220741
    104 C35        -0.3080    1.3050    2.4520 c         1 MOL      0.499189
    105 O15        -0.0280    0.9380    1.3340 o         1 MOL     -0.568449
    106 C36         1.5200    1.9990    4.2450 c3        1 MOL      0.250201
    107 C37         1.0740    1.6280    5.6520 c3        1 MOL      0.065560
    108 C38         2.4010    3.2500    4.4840 c3        1 MOL     -0.276734
    109 C39         2.0060    1.0630    6.6830 c3        1 MOL     -0.319712
    110 H46         0.5630    4.5620    2.5230 hn        1 MOL      0.325458
    111 H47        -0.3300    2.8760    3.8020 h1        1 MOL     -0.041593
    112 H48         2.1170    1.2060    3.8090 hc        1 MOL     -0.005461
    113 H49         0.1460    1.0940    5.5070 hc        1 MOL     -0.028922
    114 H50         0.7010    2.5180    6.1550 hc        1 MOL     -0.028922
    115 H51         1.8550    4.0910    4.9180 hc        1 MOL      0.069166
    116 H52         3.2890    2.9740    5.0520 hc        1 MOL      0.069166
    117 H53         2.9190    3.5470    3.5640 hc        1 MOL      0.069166
    118 H54         2.5470    0.1760    6.3530 hc        1 MOL      0.093158
    119 H55         2.7450    1.8400    6.8470 hc        1 MOL      0.093158
    120 H56         1.3840    0.8880    7.5720 hc        1 MOL      0.093158
    121 N11        -1.3270    0.7050    3.0260 n         1 MOL     -0.532625
    122 C40        -1.8650   -0.6410    2.9090 c3        1 MOL     -0.106318
    123 C41        -3.0110   -0.7430    1.8920 c         1 MOL      0.441556
    124 O16        -3.6270   -1.7450    1.7050 o         1 MOL     -0.507061
    125 C42        -2.3680   -1.2260    4.3090 c3        1 MOL      0.370457
    126 O17        -1.7100   -0.6660    5.4140 oh        1 MOL     -0.634223
    127 H57        -1.6470    1.1840    3.8570 hn        1 MOL      0.264530
    128 H58        -1.0700   -1.2480    2.4910 h1        1 MOL      0.213346
    129 H59        -2.3540   -2.3140    4.3370 h1        1 MOL      0.012372
    130 H60        -3.4250   -0.9930    4.4870 h1        1 MOL      0.012372
    131 H61        -1.9510    0.2510    5.5540 ho        1 MOL      0.396861
    132 N12        -3.3150    0.3260    1.1660 n         1 MOL     -0.306196
    133 C43        -4.3890    0.3920    0.2340 c3        1 MOL     -0.213320
    134 C44        -4.1870   -0.5890   -0.9620 c         1 MOL      0.929866
    135 O18        -3.1120   -0.7560   -1.5290 o         1 MOL     -0.719516
    136 C45        -4.3910    1.8030   -0.3240 c3        1 MOL     -0.227231
    137 H62        -2.6650    1.0710    1.3420 hn        1 MOL      0.279441
    138 H63        -5.3150    0.1870    0.7600 h1        1 MOL      0.183868
    139 H64        -4.4580    2.5990    0.4150 hc        1 MOL      0.078306
    140 H65        -3.3550    1.9700   -0.6460 hc        1 MOL      0.078306
    141 H66        -5.1490    1.9450   -1.0930 hc        1 MOL      0.078306
    142 N13        -5.1980   -1.1960   -1.5280 n         1 MOL     -0.707136
    143 C46        -6.6020   -1.2470   -1.1060 c3        1 MOL      0.339287
    144 C47        -7.5100   -0.4720   -2.0300 c         1 MOL      0.478524
    145 O19        -7.1970   -0.2610   -3.1900 o         1 MOL     -0.582430
    146 C48        -7.0510   -2.6980   -1.0780 c3        1 MOL     -0.156079
    147 H67        -4.9530   -1.7160   -2.3640 hn        1 MOL      0.317119
    148 H68        -6.7000   -0.8790   -0.0900 h1        1 MOL     -0.004990
    149 H69        -6.3490   -3.1770   -0.3840 hc        1 MOL      0.046743
    150 H70        -8.0740   -2.7870   -0.7160 hc        1 MOL      0.046743
    151 H71        -6.9670   -3.1960   -2.0410 hc        1 MOL      0.046743
    152 N14        -8.6680   -0.0020   -1.6130 n         1 MOL     -0.294149
    153 C49        -9.2620   -0.0630   -0.2150 c3        1 MOL     -0.362748
    154 C50        -9.2870    1.1740    0.6770 c         1 MOL      0.551943
    155 O20        -9.0410    1.1130    1.8810 o         1 MOL     -0.553769
    156 C51       -10.6630   -0.7140   -0.2960 c3        1 MOL      0.070172
    157 C52       -11.8370    0.0800   -0.9760 c3        1 MOL      0.039932
    158 C53       -11.5550    0.5120   -2.4840 c         1 MOL      0.628249
    159 O21       -11.8940   -0.2460   -3.3730 o         1 MOL     -0.668330
    160 O22       -10.8540    1.5220   -2.6590 o         1 MOL     -0.668330
    161 H72        -9.2560    0.4880   -2.2850 hn        1 MOL      0.275554
    162 H73        -8.6730   -0.7740    0.3740 h1        1 MOL      0.110932
    163 H74       -10.9950   -0.8970    0.7300 hc        1 MOL      0.019796
    164 H75       -10.7420   -1.5980   -0.9200 hc        1 MOL      0.019796
    165 H76       -12.0360    1.0180   -0.4630 hc        1 MOL     -0.052846
    166 H77       -12.7450   -0.5230   -0.9360 hc        1 MOL     -0.052846
    167 N15        -9.5510    2.3190    0.1110 n         1 MOL     -0.199059
    168 C54        -9.5110    3.6010    0.8910 c3        1 MOL     -0.089158
    169 H78       -10.4440    4.1450    0.7430 h1        1 MOL      0.061561
    170 H79        -9.3840    3.3790    1.9500 h1        1 MOL      0.061561
    171 H80        -8.6770    4.2120    0.5450 h1        1 MOL      0.061561
    172 H81        -9.5690    2.4820   -0.8820 hn        1 MOL      0.197518
    173 Ca1         1.7760    0.3550   -0.7610 Ca        1 MOL      1.746034
    174 O23        -0.3600   -0.4810   -2.3150 oh        1 MOL     -0.806207
    175 H82        -1.2070   -0.6360   -1.8850 ho        1 MOL      0.405585
    176 H83        -0.5850   -0.2950   -3.2270 ho        1 MOL      0.405585
    177 O24        -0.1490    2.3240   -1.3310 oh        1 MOL     -0.806207
    178 H84        -0.9320    2.1990   -0.7900 ho        1 MOL      0.405585
    179 H85        -0.4290    2.9280   -2.0210 ho        1 MOL      0.405585
    180 O25         2.5160    2.3820   -2.8390 oh        1 MOL     -0.806207
    181 H86         3.2770    2.0950   -3.3340 ho        1 MOL      0.405585
    182 H87         2.7160    3.2850   -2.5800 ho        1 MOL      0.405585
@<TRIPOS>BOND
     1    1    2 1   
     2    1    4 1   
     3    1    5 1   
     4    1    6 1   
     5    2    3 2   
     6    2    7 1   
     7    7    8 1   
     8    7   15 1   
     9    8    9 1   
    10    8   11 1   
    11    8   16 1   
    12    9   10 2   
    13    9   19 1   
    14   11   12 1   
    15   11   17 1   
    16   11   18 1   
    17   12   13 1   
    18   12   14 1   
    19   19   20 1   
    20   19   28 1   
    21   20   21 1   
    22   20   23 1   
    23   20   29 1   
    24   21   22 2   
    25   21   41 1   
    26   23   24 1   
    27   23   30 1   
    28   23   31 1   
    29   24   25 1   
    30   24   32 1   
    31   24   33 1   
    32   25   26 1   
    33   25   34 1   
    34   25   35 1   
    35   26   27 1   
    36   26   36 1   
    37   26   37 1   
    38   27   38 1   
    39   27   39 1   
    40   27   40 1   
    41   41   42 1   
    42   41   49 1   
    43   42   43 1   
    44   42   45 1   
    45   42   50 1   
    46   43   44 2   
    47   43   53 1   
    48   45   46 1   
    49   45   51 1   
    50   45   52 1   
    51   46   47 1   
    52   46   48 1   
    53   53   54 1   
    54   53   57 1   
    55   54   55 1   
    56   54   58 1   
    57   54   59 1   
    58   55   56 2   
    59   55   60 1   
    60   60   61 1   
    61   60   68 1   
    62   61   62 1   
    63   61   64 1   
    64   61   69 1   
    65   62   63 2   
    66   62   74 1   
    67   64   65 1   
    68   64   70 1   
    69   64   71 1   
    70   65   66 1   
    71   65   67 2   
    72   66   72 1   
    73   66   73 1   
    74   74   75 1   
    75   74   78 1   
    76   75   76 1   
    77   75   79 1   
    78   75   80 1   
    79   76   77 2   
    80   76   81 1   
    81   81   82 1   
    82   81   93 1   
    83   82   83 1   
    84   82   85 1   
    85   82   94 1   
    86   83   84 2   
    87   83  102 1   
    88   85   86 1   
    89   85   95 1   
    90   85   96 1   
    91   86   87 ar  
    92   86   88 ar  
    93   87   89 ar  
    94   87   97 1   
    95   88   90 ar  
    96   88   98 1   
    97   89   91 ar  
    98   89   99 1   
    99   90   91 ar  
   100   90  100 1   
   101   91   92 1   
   102   92  101 1   
   103  102  103 1   
   104  102  110 1   
   105  103  104 1   
   106  103  106 1   
   107  103  111 1   
   108  104  105 2   
   109  104  121 1   
   110  106  107 1   
   111  106  108 1   
   112  106  112 1   
   113  107  109 1   
   114  107  113 1   
   115  107  114 1   
   116  108  115 1   
   117  108  116 1   
   118  108  117 1   
   119  109  118 1   
   120  109  119 1   
   121  109  120 1   
   122  121  122 1   
   123  121  127 1   
   124  122  123 1   
   125  122  125 1   
   126  122  128 1   
   127  123  124 2   
   128  123  132 1   
   129  125  126 1   
   130  125  129 1   
   131  125  130 1   
   132  126  131 1   
   133  132  133 1   
   134  132  137 1   
   135  133  134 1   
   136  133  136 1   
   137  133  138 1   
   138  134  135 2   
   139  134  142 1   
   140  136  139 1   
   141  136  140 1   
   142  136  141 1   
   143  142  143 1   
   144  142  147 1   
   145  143  144 1   
   146  143  146 1   
   147  143  148 1   
   148  144  145 2   
   149  144  152 1   
   150  146  149 1   
   151  146  150 1   
   152  146  151 1   
   153  152  153 1   
   154  152  161 1   
   155  153  154 1   
   156  153  156 1   
   157  153  162 1   
   158  154  155 2   
   159  154  167 1   
   160  156  157 1   
   161  156  163 1   
   162  156  164 1   
   163  157  158 1   
   164  157  165 1   
   165  157  166 1   
   166  158  159 1   
   167  158  160 1   
   168  167  168 1   
   169  167  172 1   
   170  168  169 1   
   171  168  170 1   
   172  168  171 1   
   173  174  175 1   
   174  174  176 1   
   175  177  178 1   
   176  177  179 1   
   177  180  181 1   
   178  180  182 1   
@<TRIPOS>SUBSTRUCTURE
     1 MOL         1 TEMP              0 ****  ****    0 ROOT
