@<TRIPOS>MOLECULE
MOL
  195   189     1     0     0
SMALL
resp


@<TRIPOS>ATOM
      1 C1         -6.6370   -2.5600    5.1150 c3        1 MOL     -0.285251
      2 C2         -5.9760   -2.1320    3.7860 c         1 MOL      0.749245
      3 O1         -5.4920   -2.9470    3.0840 o         1 MOL     -0.596069
      4 H1         -6.2650   -1.9320    5.9240 hc        1 MOL      0.070802
      5 H2         -7.7180   -2.4460    5.0370 hc        1 MOL      0.070802
      6 H3         -6.3950   -3.6020    5.3240 hc        1 MOL      0.070802
      7 N1         -5.8860   -0.8280    3.4770 n         1 MOL     -0.496189
      8 C3         -5.3720   -0.1700    2.2770 c3        1 MOL      0.208610
      9 C4         -3.8650   -0.2570    1.9890 c         1 MOL     -0.046588
     10 O2         -3.3240    0.2760    0.9570 o         1 MOL     -0.262560
     11 C5         -5.7210    1.3250    2.3830 c3        1 MOL      0.031437
     12 C6         -7.0860    1.6950    2.8970 c         1 MOL      0.661953
     13 O3         -7.2610    1.5810    4.1420 o         1 MOL     -0.692709
     14 O4         -7.8360    2.2360    2.0740 o         1 MOL     -0.692709
     15 H4         -6.3250   -0.2560    4.1910 hn        1 MOL      0.220965
     16 H5         -5.8070   -0.6100    1.3820 h1        1 MOL      0.059771
     17 H6         -5.7100    1.7370    1.3810 hc        1 MOL     -0.077227
     18 H7         -4.9760    1.8330    3.0030 hc        1 MOL     -0.077227
     19 N2         -3.0890   -0.8150    2.8680 n         1 MOL     -0.001054
     20 C7         -1.6180   -0.8020    2.8470 c3        1 MOL      0.034499
     21 C8         -0.8590   -2.1180    2.4050 c         1 MOL      0.316398
     22 O5         -1.1570   -3.2170    2.8430 o         1 MOL     -0.493231
     23 C9         -1.0730   -0.4540    4.2240 c3        1 MOL     -0.049756
     24 C10        -1.7830    0.8000    4.9280 c3        1 MOL     -0.081209
     25 C11        -1.7320    2.1150    4.1540 c3        1 MOL      0.018434
     26 C12        -1.5960    3.3200    5.0790 c3        1 MOL      0.061111
     27 N3         -0.8740    4.4550    4.3680 n4        1 MOL     -0.468124
     28 H8         -3.5780   -1.2860    3.6210 hn        1 MOL      0.195222
     29 H9         -1.3010   -0.0370    2.1400 h1        1 MOL     -0.022138
     30 H10        -0.0100   -0.2790    4.0660 hc        1 MOL      0.050305
     31 H11        -1.2200   -1.2700    4.9290 hc        1 MOL      0.050305
     32 H12        -1.2360    0.8910    5.8690 hc        1 MOL      0.030064
     33 H13        -2.8150    0.5020    5.1280 hc        1 MOL      0.030064
     34 H14        -2.5380    2.2230    3.4250 hc        1 MOL      0.048190
     35 H15        -0.8850    2.0960    3.4610 hc        1 MOL      0.048190
     36 H16        -0.9520    2.9550    5.8810 hx        1 MOL      0.068189
     37 H17        -2.5120    3.5560    5.6050 hx        1 MOL      0.068189
     38 H18        -1.3070    4.5590    3.4630 hn        1 MOL      0.355209
     39 H19        -1.0070    5.2610    4.9610 hn        1 MOL      0.355209
     40 H20         0.0680    4.1650    4.1590 hn        1 MOL      0.355209
     41 N4          0.1320   -2.0770    1.4870 n         1 MOL     -0.009299
     42 C13         0.8990   -1.0030    0.9170 c3        1 MOL     -0.223810
     43 C14         1.4760    0.0500    1.8930 c         1 MOL      0.610443
     44 O6          0.9320    1.1580    1.9450 o         1 MOL     -0.539360
     45 C15         0.2580   -0.4580   -0.3540 c3        1 MOL     -0.280924
     46 C16         0.0570   -1.5250   -1.3950 c         1 MOL      0.725893
     47 O7          0.5290   -2.6790   -1.2810 o         1 MOL     -0.769643
     48 O8         -0.4720   -1.1840   -2.4540 o         1 MOL     -0.769643
     49 H21         0.3400   -2.9970    1.1370 hn        1 MOL      0.101151
     50 H22         1.7720   -1.5050    0.4940 h1        1 MOL      0.036669
     51 H23         0.9160    0.2880   -0.7920 hc        1 MOL      0.136786
     52 H24        -0.6610    0.1090   -0.2070 hc        1 MOL      0.136786
     53 N5          2.6100   -0.3060    2.5390 n         1 MOL     -0.426761
     54 C17         3.4720   -1.4470    2.2750 c3        1 MOL     -0.096833
     55 C18         4.6040   -1.6680    3.2790 c         1 MOL      0.599973
     56 O9          4.7300   -0.8820    4.2380 o         1 MOL     -0.536355
     57 H25         3.0330    0.4130    3.1090 hn        1 MOL      0.287407
     58 H26         3.8660   -1.4210    1.2660 h1        1 MOL      0.096164
     59 H27         2.8250   -2.3280    2.3950 h1        1 MOL      0.096164
     60 N6          5.4550   -2.6740    3.1310 n         1 MOL     -0.525813
     61 C19         5.7510   -3.5510    1.9900 c3        1 MOL      0.239181
     62 C20         6.3880   -2.8500    0.8480 c         1 MOL      0.432039
     63 O10         7.1830   -1.8800    1.0720 o         1 MOL     -0.438404
     64 C21         6.6730   -4.7210    2.4400 c3        1 MOL     -0.232016
     65 C22         7.7230   -4.2500    3.4510 c         1 MOL      0.763023
     66 O11         7.4080   -3.9700    4.6370 o         1 MOL     -0.665325
     67 O12         8.9350   -4.2280    3.1660 o         1 MOL     -0.665325
     68 H28         6.1210   -2.8070    3.8760 hn        1 MOL      0.280222
     69 H29         4.8490   -4.0280    1.6030 h1        1 MOL     -0.044115
     70 H30         7.1470   -5.1760    1.5740 hc        1 MOL      0.037488
     71 H31         6.1560   -5.5630    2.8960 hc        1 MOL      0.037488
     72 N7          6.1550   -3.2990   -0.4280 n         1 MOL     -0.393404
     73 C23         6.9670   -2.8040   -1.6040 c3        1 MOL     -0.188277
     74 C24         6.5940   -1.4180   -2.1050 c         1 MOL      0.523552
     75 O13         7.2420   -0.8750   -2.9340 o         1 MOL     -0.569624
     76 H32         5.6010   -4.1240   -0.5850 hn        1 MOL      0.252949
     77 H33         6.7720   -3.4910   -2.4270 h1        1 MOL      0.128583
     78 H34         8.0480   -2.8870   -1.4990 h1        1 MOL      0.128583
     79 N8          5.4880   -0.9130   -1.6780 n         1 MOL     -0.162734
     80 C25         4.9660    0.4250   -1.8850 c3        1 MOL      0.039999
     81 C26         4.9820    1.3500   -0.7160 c         1 MOL      0.454816
     82 O14         4.6690    0.9090    0.4290 o         1 MOL     -0.439337
     83 C27         3.5380    0.4350   -2.5280 c3        1 MOL      0.491240
     84 C28         3.6190   -0.3730   -3.8260 c3        1 MOL     -0.201192
     85 O15         3.1640    1.7530   -2.7970 oh        1 MOL     -0.719089
     86 H35         4.9590   -1.5360   -1.0810 hn        1 MOL      0.026651
     87 H36         5.6020    0.9510   -2.5940 h1        1 MOL      0.051307
     88 H37         2.8180   -0.0150   -1.8410 h1        1 MOL      0.022945
     89 H38         2.3030    1.9610   -2.4190 ho        1 MOL      0.379132
     90 H39         4.2490    0.0600   -4.6010 hc        1 MOL      0.029094
     91 H40         3.8720   -1.4290   -3.7360 hc        1 MOL      0.029094
     92 H41         2.6280   -0.3460   -4.2860 hc        1 MOL      0.029094
     93 N9          5.3710    2.5830   -0.9430 n         1 MOL     -0.526078
     94 C29         5.1990    3.7020    0.0210 c3        1 MOL     -0.068928
     95 C30         3.7560    4.1800    0.1260 c         1 MOL      0.492771
     96 O16         3.1910    4.0510    1.2540 o         1 MOL     -0.538020
     97 C31         6.0790    4.9130   -0.3830 c3        1 MOL      0.231814
     98 C32         7.5350    4.4730   -0.7010 c3        1 MOL     -0.110747
     99 C33         6.0480    5.9670    0.7180 c3        1 MOL     -0.348319
    100 C34         8.5880    5.6750   -0.8650 c3        1 MOL     -0.376091
    101 H42         5.6320    2.8930   -1.8690 hn        1 MOL      0.328335
    102 H43         5.5180    3.3920    1.0150 h1        1 MOL      0.132124
    103 H44         5.6460    5.2790   -1.3140 hc        1 MOL     -0.026077
    104 H45         7.5110    3.9000   -1.6320 hc        1 MOL      0.088372
    105 H46         7.9150    3.8800    0.1220 hc        1 MOL      0.088372
    106 H47         5.0490    6.3500    0.9690 hc        1 MOL      0.091841
    107 H48         6.5480    5.6520    1.6330 hc        1 MOL      0.091841
    108 H49         6.5450    6.8130    0.2500 hc        1 MOL      0.091841
    109 H50         8.1820    6.4260   -1.5340 hc        1 MOL      0.106851
    110 H51         8.6550    6.1650    0.0970 hc        1 MOL      0.106851
    111 H52         9.5330    5.2210   -1.1610 hc        1 MOL      0.106851
    112 N10         3.0650    4.5870   -0.9490 n         1 MOL     -0.305415
    113 C35         1.7390    5.0260   -1.0460 c3        1 MOL     -0.063498
    114 C36         0.6670    3.8950   -1.0130 c         1 MOL      0.505059
    115 O17         0.8480    2.7820   -1.4880 o         1 MOL     -0.356783
    116 C37         1.5780    5.9360   -2.1900 c3        1 MOL      0.436535
    117 C38         1.8710    5.3780   -3.6070 c3        1 MOL     -0.407476
    118 O18         2.4020    7.0240   -1.9470 oh        1 MOL     -0.630782
    119 H53         3.5700    4.4590   -1.8190 hn        1 MOL      0.241071
    120 H54         1.5340    5.6900   -0.2110 h1        1 MOL      0.040730
    121 H55         0.5520    6.3000   -2.1830 h1        1 MOL     -0.037872
    122 H56         1.9300    7.6300   -1.3770 ho        1 MOL      0.388393
    123 H57         1.7520    6.1460   -4.3650 hc        1 MOL      0.123085
    124 H58         2.9160    5.0940   -3.6890 hc        1 MOL      0.123085
    125 H59         1.2610    4.4870   -3.7630 hc        1 MOL      0.123085
    126 N11        -0.4890    4.1660   -0.4030 n         1 MOL     -0.489486
    127 C39        -1.6120    3.2340   -0.2970 c3        1 MOL      0.078134
    128 C40        -2.0610    2.8400   -1.6950 c         1 MOL      0.160949
    129 O19        -1.8980    3.6050   -2.6840 o         1 MOL     -0.475204
    130 C41        -2.7960    3.8120    0.4760 c3        1 MOL      0.431109
    131 C42        -3.3720    5.0680   -0.1900 c3        1 MOL     -0.462713
    132 O20        -2.4130    4.2250    1.7480 oh        1 MOL     -0.727925
    133 H60        -0.5560    5.0950   -0.0120 hn        1 MOL      0.282785
    134 H61        -1.4180    2.3390    0.3120 h1        1 MOL      0.149810
    135 H62        -3.5200    3.0010    0.5610 h1        1 MOL      0.060956
    136 H63        -3.1930    4.6270    2.1450 ho        1 MOL      0.420111
    137 H64        -3.7400    4.7950   -1.1810 hc        1 MOL      0.116516
    138 H65        -4.2410    5.4640    0.3310 hc        1 MOL      0.116516
    139 H66        -2.6260    5.8460   -0.2830 hc        1 MOL      0.116516
    140 N12        -2.6470    1.6530   -1.8340 n         1 MOL      0.024962
    141 C43        -3.4520    1.1600   -2.9310 c3        1 MOL      0.145307
    142 C44        -3.9170   -0.3260   -2.8540 c         1 MOL      0.517601
    143 O21        -4.2290   -0.8660   -3.8790 o         1 MOL     -0.631014
    144 C45        -4.7020    2.0680   -3.0780 c3        1 MOL     -0.285862
    145 C46        -5.6910    1.9390   -1.9390 c3        1 MOL      0.098159
    146 C47        -6.8850    2.8980   -2.2550 c3        1 MOL     -0.189565
    147 C48        -6.4510    4.4130   -2.3200 c3        1 MOL      0.059061
    148 N13        -7.6780    5.1920   -2.2860 n4        1 MOL     -0.309526
    149 H67        -2.6580    1.0740   -0.9960 hn        1 MOL     -0.120829
    150 H68        -2.8610    1.3090   -3.8380 h1        1 MOL      0.074009
    151 H69        -5.1090    1.6070   -3.9850 hc        1 MOL      0.068534
    152 H70        -4.4050    3.0980   -3.2850 hc        1 MOL      0.068534
    153 H71        -5.1960    2.2050   -1.0130 hc        1 MOL      0.034305
    154 H72        -6.1100    0.9360   -1.8430 hc        1 MOL      0.034305
    155 H73        -7.6180    2.7900   -1.4610 hc        1 MOL      0.087329
    156 H74        -7.4160    2.5030   -3.1290 hc        1 MOL      0.087329
    157 H75        -5.9260    4.6890   -3.2400 hx        1 MOL      0.078423
    158 H76        -5.7720    4.7250   -1.5350 hx        1 MOL      0.078423
    159 H77        -7.6430    6.2030   -2.1790 hn        1 MOL      0.283505
    160 H78        -8.2500    5.1010   -3.1130 hn        1 MOL      0.283505
    161 H79        -8.2490    4.8270   -1.5250 hn        1 MOL      0.283505
    162 N14        -3.8680   -0.9450   -1.7160 n         1 MOL     -0.055250
    163 C49        -4.0850   -2.4010   -1.5860 c3        1 MOL      0.041862
    164 C50        -5.6520   -2.6880   -1.5910 c         1 MOL      0.246120
    165 O22        -6.3850   -2.1530   -0.7250 o         1 MOL     -0.483238
    166 C51        -3.4620   -2.8760   -0.2230 c3        1 MOL      0.156626
    167 C52        -3.7110   -4.3480    0.1490 c3        1 MOL     -0.467200
    168 C53        -3.2010   -5.3340   -0.8970 c         1 MOL      0.697029
    169 O23        -4.0800   -6.0120   -1.5450 o         1 MOL     -0.742849
    170 O24        -1.9790   -5.3380   -1.2070 o         1 MOL     -0.742849
    171 H80        -3.6610   -0.3940   -0.8970 hn        1 MOL      0.032560
    172 H81        -3.6370   -2.9120   -2.4350 h1        1 MOL      0.062444
    173 H82        -3.9680   -2.3290    0.5720 hc        1 MOL      0.011272
    174 H83        -2.3920   -2.6710   -0.3200 hc        1 MOL      0.011272
    175 H84        -4.7680   -4.4530    0.3760 hc        1 MOL      0.169421
    176 H85        -3.3320   -4.5920    1.1510 hc        1 MOL      0.169421
    177 N15        -6.1580   -3.5480   -2.4760 n         1 MOL      0.003792
    178 C54        -7.5740   -3.8770   -2.5300 c3        1 MOL     -0.276141
    179 H86        -7.7780   -4.4550   -3.4310 h1        1 MOL      0.107574
    180 H87        -7.8440   -4.4640   -1.6530 h1        1 MOL      0.107574
    181 H88        -8.1610   -2.9580   -2.5470 h1        1 MOL      0.107574
    182 H89        -5.5900   -3.5340   -3.3130 hn        1 MOL      0.189707
    183 Ca1         0.4120   -5.0970   -2.1400 Ca        1 MOL      1.791127
    184 O25        -1.3430   -3.4570   -3.3760 oh        1 MOL     -0.910037
    185 H90        -1.1210   -2.5860   -3.0680 ho        1 MOL      0.452204
    186 H91        -1.9430   -3.3200   -4.1100 ho        1 MOL      0.452204
    187 O26        -0.9550   -6.7290   -3.8530 oh        1 MOL     -0.910037
    188 H92        -1.8970   -6.6300   -3.9850 ho        1 MOL      0.452204
    189 H93        -0.7160   -7.4740   -4.4050 ho        1 MOL      0.452204
    190 O27         2.0010   -6.7370   -3.4280 oh        1 MOL     -0.910037
    191 H94         2.7670   -7.2820   -3.2300 ho        1 MOL      0.452204
    192 H95         1.8660   -6.8450   -4.3710 ho        1 MOL      0.452204
    193 O28         1.5690   -3.4390   -3.8850 oh        1 MOL     -0.910037
    194 H96         1.6910   -2.5600   -3.5280 ho        1 MOL      0.452204
    195 H97         2.3140   -3.5640   -4.4720 ho        1 MOL      0.452204
@<TRIPOS>BOND
     1    1    2 1   
     2    1    4 1   
     3    1    5 1   
     4    1    6 1   
     5    2    3 2   
     6    2    7 1   
     7    7    8 1   
     8    7   15 1   
     9    8    9 1   
    10    8   11 1   
    11    8   16 1   
    12    9   10 2   
    13    9   19 1   
    14   11   12 1   
    15   11   17 1   
    16   11   18 1   
    17   12   13 1   
    18   12   14 1   
    19   19   20 1   
    20   19   28 1   
    21   20   21 1   
    22   20   23 1   
    23   20   29 1   
    24   21   22 2   
    25   21   41 1   
    26   23   24 1   
    27   23   30 1   
    28   23   31 1   
    29   24   25 1   
    30   24   32 1   
    31   24   33 1   
    32   25   26 1   
    33   25   34 1   
    34   25   35 1   
    35   26   27 1   
    36   26   36 1   
    37   26   37 1   
    38   27   38 1   
    39   27   39 1   
    40   27   40 1   
    41   41   42 1   
    42   41   49 1   
    43   42   43 1   
    44   42   45 1   
    45   42   50 1   
    46   43   44 2   
    47   43   53 1   
    48   45   46 1   
    49   45   51 1   
    50   45   52 1   
    51   46   47 1   
    52   46   48 1   
    53   53   54 1   
    54   53   57 1   
    55   54   55 1   
    56   54   58 1   
    57   54   59 1   
    58   55   56 2   
    59   55   60 1   
    60   60   61 1   
    61   60   68 1   
    62   61   62 1   
    63   61   64 1   
    64   61   69 1   
    65   62   63 2   
    66   62   72 1   
    67   64   65 1   
    68   64   70 1   
    69   64   71 1   
    70   65   66 1   
    71   65   67 1   
    72   72   73 1   
    73   72   76 1   
    74   73   74 1   
    75   73   77 1   
    76   73   78 1   
    77   74   75 2   
    78   74   79 1   
    79   79   80 1   
    80   79   86 1   
    81   80   81 1   
    82   80   83 1   
    83   80   87 1   
    84   81   82 2   
    85   81   93 1   
    86   83   84 1   
    87   83   85 1   
    88   83   88 1   
    89   84   90 1   
    90   84   91 1   
    91   84   92 1   
    92   85   89 1   
    93   93   94 1   
    94   93  101 1   
    95   94   95 1   
    96   94   97 1   
    97   94  102 1   
    98   95   96 2   
    99   95  112 1   
   100   97   98 1   
   101   97   99 1   
   102   97  103 1   
   103   98  100 1   
   104   98  104 1   
   105   98  105 1   
   106   99  106 1   
   107   99  107 1   
   108   99  108 1   
   109  100  109 1   
   110  100  110 1   
   111  100  111 1   
   112  112  113 1   
   113  112  119 1   
   114  113  114 1   
   115  113  116 1   
   116  113  120 1   
   117  114  115 2   
   118  114  126 1   
   119  116  117 1   
   120  116  118 1   
   121  116  121 1   
   122  117  123 1   
   123  117  124 1   
   124  117  125 1   
   125  118  122 1   
   126  126  127 1   
   127  126  133 1   
   128  127  128 1   
   129  127  130 1   
   130  127  134 1   
   131  128  129 2   
   132  128  140 1   
   133  130  131 1   
   134  130  132 1   
   135  130  135 1   
   136  131  137 1   
   137  131  138 1   
   138  131  139 1   
   139  132  136 1   
   140  140  141 1   
   141  140  149 1   
   142  141  142 1   
   143  141  144 1   
   144  141  150 1   
   145  142  143 2   
   146  142  162 1   
   147  144  145 1   
   148  144  151 1   
   149  144  152 1   
   150  145  146 1   
   151  145  153 1   
   152  145  154 1   
   153  146  147 1   
   154  146  155 1   
   155  146  156 1   
   156  147  148 1   
   157  147  157 1   
   158  147  158 1   
   159  148  159 1   
   160  148  160 1   
   161  148  161 1   
   162  162  163 1   
   163  162  171 1   
   164  163  164 1   
   165  163  166 1   
   166  163  172 1   
   167  164  165 2   
   168  164  177 1   
   169  166  167 1   
   170  166  173 1   
   171  166  174 1   
   172  167  168 1   
   173  167  175 1   
   174  167  176 1   
   175  168  169 1   
   176  168  170 1   
   177  177  178 1   
   178  177  182 1   
   179  178  179 1   
   180  178  180 1   
   181  178  181 1   
   182  184  185 1   
   183  184  186 1   
   184  187  188 1   
   185  187  189 1   
   186  190  191 1   
   187  190  192 1   
   188  193  194 1   
   189  193  195 1   
@<TRIPOS>SUBSTRUCTURE
     1 MOL         1 TEMP              0 ****  ****    0 ROOT
