@<TRIPOS>MOLECULE
MOL
  192   187     1     0     0
SMALL
resp


@<TRIPOS>ATOM
      1 C1          5.3520    3.0680    5.4820 c3        1 MOL     -0.021286
      2 C2          4.8940    2.4760    4.1210 c         1 MOL      0.827976
      3 O1          4.3380    3.1830    3.2690 o         1 MOL     -0.691372
      4 H1          5.4140    2.2710    6.2230 hc        1 MOL     -0.007792
      5 H2          6.3310    3.5330    5.3660 hc        1 MOL     -0.007792
      6 H3          4.6310    3.8160    5.8150 hc        1 MOL     -0.007792
      7 N1          5.1730    1.2590    3.8110 n         1 MOL     -0.754130
      8 C3          4.9530    0.6800    2.4870 c3        1 MOL      0.813303
      9 C4          3.4300    0.5750    2.1180 c         1 MOL     -0.030495
     10 O2          3.1000    0.4280    0.9700 o         1 MOL     -0.305099
     11 C5          5.5480   -0.7560    2.3860 c3        1 MOL     -0.461440
     12 C6          6.9380   -0.9870    2.9370 c         1 MOL      0.790917
     13 O3          7.8600   -1.1070    2.1080 o         1 MOL     -0.732161
     14 O4          7.1360   -0.9330    4.1470 o         1 MOL     -0.732161
     15 H4          5.7430    0.8680    4.5440 hn        1 MOL      0.311152
     16 H5          5.4050    1.2730    1.6930 h1        1 MOL     -0.089488
     17 H6          5.6160   -0.9720    1.3250 hc        1 MOL      0.058911
     18 H7          4.8270   -1.4460    2.8400 hc        1 MOL      0.058911
     19 N2          2.4510    0.6960    3.0510 n         1 MOL     -0.311353
     20 C7          1.0450    0.4050    2.8100 c3        1 MOL      0.419995
     21 C8          0.3110    1.7370    2.3460 c         1 MOL      0.187204
     22 O5          0.4970    2.7730    2.9200 o         1 MOL     -0.451197
     23 C9          0.4210   -0.2610    4.0220 c3        1 MOL     -0.119919
     24 C10         0.9080   -1.6720    4.2190 c3        1 MOL      0.167232
     25 C11         0.1200   -2.2600    5.4000 c3        1 MOL     -0.084119
     26 C12         0.6980   -3.6100    5.7500 c3        1 MOL      0.128996
     27 N3          0.3030   -3.9300    7.1320 n4        1 MOL     -0.323275
     28 H8          2.7550    0.9940    3.9660 hn        1 MOL      0.185215
     29 H9          0.8860   -0.3480    2.0380 h1        1 MOL     -0.057623
     30 H10        -0.6650   -0.2010    3.8790 hc        1 MOL      0.020012
     31 H11         0.6360    0.3070    4.9190 hc        1 MOL      0.020012
     32 H12         1.9590   -1.7480    4.5070 hc        1 MOL     -0.008939
     33 H13         0.7360   -2.2660    3.3250 hc        1 MOL     -0.008939
     34 H14        -0.9540   -2.2880    5.1970 hc        1 MOL      0.022648
     35 H15         0.2910   -1.5050    6.1650 hc        1 MOL      0.022648
     36 H16         1.7820   -3.4430    5.7470 hx        1 MOL      0.059592
     37 H17         0.5190   -4.4390    5.0810 hx        1 MOL      0.059592
     38 H18         0.7040   -4.8190    7.3850 hn        1 MOL      0.311301
     39 H19         0.4590   -3.1980    7.8030 hn        1 MOL      0.311301
     40 H20        -0.7050   -4.0170    7.0980 hn        1 MOL      0.311301
     41 N4         -0.6430    1.6920    1.3430 n         1 MOL      0.090836
     42 C13        -1.1380    0.5030    0.5650 c3        1 MOL     -0.678559
     43 C14        -1.4980   -0.8320    1.2700 c         1 MOL      0.237219
     44 O6         -0.9240   -1.9390    1.0660 o         1 MOL     -0.376486
     45 C15        -0.3760    0.2890   -0.7900 c3        1 MOL     -0.530972
     46 C16        -0.4980    1.4720   -1.7080 c         1 MOL      0.276344
     47 O7          0.0630    1.4700   -2.7820 o         1 MOL     -0.575185
     48 O8         -1.2840    2.4000   -1.4290 o         1 MOL     -0.575185
     49 H21        -0.9810    2.5620    0.9720 hn        1 MOL      0.120470
     50 H22        -2.1080    0.8780    0.2310 h1        1 MOL      0.215579
     51 H23        -0.7820   -0.5670   -1.3280 hc        1 MOL      0.555152
     52 H24         0.6710    0.1290   -0.5440 hc        1 MOL      0.555152
     53 N5         -2.5580   -0.7810    2.0930 n         1 MOL     -0.066635
     54 C17        -3.6660    0.2260    2.2320 c3        1 MOL     -0.044843
     55 C18        -4.9460    0.0540    3.0960 c         1 MOL      0.521870
     56 O9         -5.0760   -1.0030    3.7020 o         1 MOL     -0.556490
     57 H25        -2.7540   -1.6440    2.5730 hn        1 MOL      0.191625
     58 H26        -4.0240    0.4660    1.2370 h1        1 MOL      0.096172
     59 H27        -3.1780    1.1540    2.5430 h1        1 MOL      0.096172
     60 N6         -5.9120    0.9440    3.1980 n         1 MOL     -0.494738
     61 C19        -6.1940    1.9730    2.2250 c3        1 MOL      0.159945
     62 C20        -7.3290    1.5120    1.2140 c         1 MOL      0.478237
     63 O10        -8.1410    0.6480    1.5080 o         1 MOL     -0.470463
     64 C21        -6.5920    3.2170    3.0000 c3        1 MOL     -0.158297
     65 C22        -7.8100    3.1330    3.9210 c         1 MOL      0.685753
     66 O11        -8.7640    3.9850    3.8250 o         1 MOL     -0.662147
     67 O12        -7.8850    2.1640    4.7300 o         1 MOL     -0.662147
     68 H28        -6.4690    0.8620    4.0400 hn        1 MOL      0.333207
     69 H29        -5.2740    2.0950    1.6560 h1        1 MOL     -0.041844
     70 H30        -6.7480    4.0410    2.2900 hc        1 MOL     -0.015926
     71 H31        -5.6720    3.4500    3.5450 hc        1 MOL     -0.015926
     72 N7         -7.3880    2.0890    0.0330 n         1 MOL     -0.258184
     73 C23        -8.1090    1.5710   -1.1700 c3        1 MOL     -0.353093
     74 C24        -7.4150    0.3850   -2.0310 c         1 MOL      0.517855
     75 O13        -8.1360   -0.1300   -2.8640 o         1 MOL     -0.502921
     76 H32        -6.7490    2.8600   -0.0820 hn        1 MOL      0.232641
     77 H33        -8.1780    2.4370   -1.8280 h1        1 MOL      0.163460
     78 H34        -9.0730    1.1840   -0.8350 h1        1 MOL      0.163460
     79 N8         -6.1550    0.0400   -1.7500 n         1 MOL     -0.017735
     80 C25        -5.5030   -1.1110   -2.3690 c3        1 MOL     -0.562562
     81 C26        -4.4170   -1.5440   -1.4100 c         1 MOL      0.515907
     82 O14        -3.5220   -0.8010   -1.0930 o         1 MOL     -0.452992
     83 C27        -4.9480   -0.9430   -3.8030 c3        1 MOL      0.483813
     84 C28        -4.0930    0.3180   -3.9050 c3        1 MOL     -0.192348
     85 O15        -5.9870   -0.9790   -4.7610 oh        1 MOL     -0.623428
     86 H35        -5.6040    0.5200   -1.0490 hn        1 MOL      0.108054
     87 H36        -6.2170   -1.9230   -2.3970 h1        1 MOL      0.167790
     88 H37        -4.3170   -1.8200   -3.9370 h1        1 MOL      0.021880
     89 H38        -6.7700   -0.9130   -4.2190 ho        1 MOL      0.381687
     90 H39        -3.7720    0.4600   -4.9360 hc        1 MOL      0.050317
     91 H40        -4.7180    1.1420   -3.5720 hc        1 MOL      0.050317
     92 H41        -3.2180    0.3880   -3.2520 hc        1 MOL      0.050317
     93 N9         -4.4920   -2.8560   -1.0660 n         1 MOL     -0.316769
     94 C29        -3.6030   -3.5900   -0.2170 c3        1 MOL     -0.249521
     95 C30        -2.2240   -3.9510   -0.9360 c         1 MOL      0.167624
     96 O16        -1.4380   -4.8040   -0.4160 o         1 MOL     -0.505363
     97 C31        -4.2320   -4.8540    0.4650 c3        1 MOL      0.352150
     98 C32        -4.3560   -6.0290   -0.4770 c3        1 MOL      0.021925
     99 C33        -5.5720   -4.5260    1.1220 c3        1 MOL     -0.097773
    100 C34        -4.9300   -7.3380    0.2060 c3        1 MOL     -0.274549
    101 H42        -5.2650   -3.3730   -1.4470 hn        1 MOL      0.281401
    102 H43        -3.4210   -2.9960    0.6800 h1        1 MOL      0.163153
    103 H44        -3.5430   -5.0520    1.2830 hc        1 MOL      0.002367
    104 H45        -3.3570   -6.3060   -0.8210 hc        1 MOL      0.037894
    105 H46        -4.9910   -5.8460   -1.3400 hc        1 MOL      0.037894
    106 H47        -5.6660   -5.3090    1.8680 hc        1 MOL      0.011258
    107 H48        -5.5470   -3.5780    1.6680 hc        1 MOL      0.011258
    108 H49        -6.3530   -4.4970    0.3560 hc        1 MOL      0.011258
    109 H50        -4.5660   -7.4780    1.2280 hc        1 MOL      0.058291
    110 H51        -6.0120   -7.2010    0.1900 hc        1 MOL      0.058291
    111 H52        -4.7150   -8.2070   -0.4130 hc        1 MOL      0.058291
    112 N10        -1.9030   -3.4900   -2.1100 n         1 MOL     -0.004549
    113 C35        -0.7100   -3.8810   -2.9010 c3        1 MOL     -0.032785
    114 C36         0.7100   -3.6600   -2.3690 c         1 MOL      0.245830
    115 O17         1.6990   -4.1260   -2.9410 o         1 MOL     -0.546892
    116 C37        -0.6910   -3.1330   -4.2010 c3        1 MOL      0.120230
    117 C38        -0.6050   -1.6460   -4.1090 c3        1 MOL      0.114263
    118 O18        -1.8350   -3.4350   -4.9000 oh        1 MOL     -0.632201
    119 H53        -2.4500   -2.7200   -2.4800 hn        1 MOL      0.105529
    120 H54        -0.7460   -4.9430   -3.1190 h1        1 MOL      0.117825
    121 H55         0.2070   -3.5280   -4.6810 h1        1 MOL      0.069498
    122 H56        -1.5390   -3.3750   -5.8090 ho        1 MOL      0.407339
    123 H57        -0.3160   -1.2710   -5.0900 hc        1 MOL     -0.009608
    124 H58        -1.5240   -1.1590   -3.7800 hc        1 MOL     -0.009608
    125 H59         0.1760   -1.3750   -3.3960 hc        1 MOL     -0.009608
    126 N11         0.8770   -2.8740   -1.2700 n         1 MOL      0.698637
    127 C39         2.1530   -2.5040   -0.6610 c3        1 MOL     -0.007112
    128 C40         3.0120   -1.5250   -1.5080 c         1 MOL      0.235475
    129 O19         2.5400   -1.2520   -2.6370 o         1 MOL     -0.494003
    130 C41         2.8790   -3.7570   -0.1890 c3        1 MOL      0.190756
    131 C42         1.9200   -4.7300    0.5190 c3        1 MOL     -0.385778
    132 O20         3.9120   -3.5280    0.7300 oh        1 MOL     -0.631863
    133 H60         0.0760   -2.3460   -0.9670 hn        1 MOL     -0.648560
    134 H61         1.9890   -1.9420    0.2640 h1        1 MOL      0.172187
    135 H62         3.2720   -4.2820   -1.0510 h1        1 MOL      0.024883
    136 H63         4.5660   -4.1890    0.5180 ho        1 MOL      0.414762
    137 H64         2.4550   -5.5800    0.9620 hc        1 MOL      0.097565
    138 H65         1.1700   -4.2600    1.1690 hc        1 MOL      0.097565
    139 H66         1.3440   -5.1790   -0.2950 hc        1 MOL      0.097565
    140 N12         4.3040   -1.1910   -1.1990 n         1 MOL     -0.156543
    141 C43         5.3080   -0.5070   -2.1170 c3        1 MOL     -0.034826
    142 C44         5.2090    1.0370   -1.9690 c         1 MOL      0.526027
    143 O21         5.8470    1.7590   -2.7200 o         1 MOL     -0.624925
    144 C45         6.7710   -1.0320   -1.9280 c3        1 MOL     -0.097682
    145 C46         7.0670   -2.4470   -2.4090 c3        1 MOL     -0.002521
    146 C47         8.4630   -2.8980   -1.9330 c3        1 MOL      0.071445
    147 C48         9.0490   -4.0740   -2.5730 c3        1 MOL      0.055301
    148 N13        10.4470   -4.4080   -2.3100 n4        1 MOL     -0.280850
    149 H67         4.5800   -1.6020   -0.3180 hn        1 MOL      0.190649
    150 H68         4.9770   -0.6390   -3.1450 h1        1 MOL      0.101407
    151 H69         7.0130   -1.0640   -0.8660 hc        1 MOL      0.065014
    152 H70         7.4060   -0.2800   -2.3870 hc        1 MOL      0.065014
    153 H71         6.9920   -2.4470   -3.5040 hc        1 MOL      0.013044
    154 H72         6.2610   -3.1000   -2.0820 hc        1 MOL      0.013044
    155 H73         8.4030   -2.9860   -0.8490 hc        1 MOL      0.016205
    156 H74         9.1030   -2.0670   -2.2330 hc        1 MOL      0.016205
    157 H75         8.8240   -3.9880   -3.6390 hx        1 MOL      0.042323
    158 H76         8.4490   -4.8630   -2.1160 hx        1 MOL      0.042323
    159 H77        10.5560   -5.4140   -2.2170 hn        1 MOL      0.302109
    160 H78        11.0430   -4.1410   -3.0770 hn        1 MOL      0.302109
    161 H79        10.8680   -4.2360   -1.4090 hn        1 MOL      0.302109
    162 N14         4.3340    1.6160   -1.1840 n         1 MOL      0.007950
    163 C49         4.0140    3.0640   -1.1120 c3        1 MOL     -0.211507
    164 C50         5.2560    3.8580   -0.6700 c         1 MOL      0.454970
    165 O22         5.9990    3.5190    0.2640 o         1 MOL     -0.474173
    166 C51         2.8290    3.3490   -0.1550 c3        1 MOL      0.640738
    167 C52         2.4390    4.8170    0.0640 c3        1 MOL     -1.470143
    168 C53         2.0730    5.5320   -1.1320 c         1 MOL      1.287018
    169 O23         2.9780    5.9570   -1.8200 o         1 MOL     -0.898158
    170 O24         0.9070    5.7110   -1.4430 o         1 MOL     -0.898158
    171 H80         3.7420    0.9990   -0.6510 hn        1 MOL     -0.124557
    172 H81         3.6550    3.3820   -2.0880 h1        1 MOL      0.080131
    173 H82         2.9710    3.0590    0.8940 hc        1 MOL     -0.055219
    174 H83         1.9380    2.8550   -0.5260 hc        1 MOL     -0.055219
    175 H84         3.2660    5.3690    0.5090 hc        1 MOL      0.386562
    176 H85         1.6820    4.7120    0.8450 hc        1 MOL      0.386562
    177 N15         5.6120    4.9170   -1.4340 n         1 MOL     -0.387833
    178 C54         6.7410    5.8410   -1.2820 c3        1 MOL      0.000624
    179 H86         6.8580    6.4250   -2.1940 h1        1 MOL      0.044558
    180 H87         6.5520    6.5110   -0.4440 h1        1 MOL      0.044558
    181 H88         7.6530    5.2730   -1.0950 h1        1 MOL      0.044558
    182 H89         4.8640    5.1610   -2.0750 hn        1 MOL      0.422292
    183 Ca1        -1.5410    5.0250   -1.8960 Ca        1 MOL      1.716122
    184 O25        -3.3690    3.6080   -3.3040 oh        1 MOL     -0.867527
    185 H90        -4.2420    3.3970   -3.6330 ho        1 MOL      0.432255
    186 H91        -2.7730    3.2400   -3.9540 ho        1 MOL      0.432255
    187 O26        -0.1730    3.8660   -3.7970 oh        1 MOL     -0.867527
    188 H92         0.6920    4.0410   -4.1660 ho        1 MOL      0.432255
    189 H93        -0.0380    3.1000   -3.2270 ho        1 MOL      0.432255
    190 O27        -2.3620    6.2370   -4.1950 oh        1 MOL     -0.867527
    191 H94        -2.8740    5.8930   -4.9270 ho        1 MOL      0.432255
    192 H95        -2.6060    7.1620   -4.1390 ho        1 MOL      0.432255
@<TRIPOS>BOND
     1    1    2 1   
     2    1    4 1   
     3    1    5 1   
     4    1    6 1   
     5    2    3 2   
     6    2    7 1   
     7    7    8 1   
     8    7   15 1   
     9    8    9 1   
    10    8   11 1   
    11    8   16 1   
    12    9   10 2   
    13    9   19 1   
    14   11   12 1   
    15   11   17 1   
    16   11   18 1   
    17   12   13 1   
    18   12   14 1   
    19   19   20 1   
    20   19   28 1   
    21   20   21 1   
    22   20   23 1   
    23   20   29 1   
    24   21   22 2   
    25   21   41 1   
    26   23   24 1   
    27   23   30 1   
    28   23   31 1   
    29   24   25 1   
    30   24   32 1   
    31   24   33 1   
    32   25   26 1   
    33   25   34 1   
    34   25   35 1   
    35   26   27 1   
    36   26   36 1   
    37   26   37 1   
    38   27   38 1   
    39   27   39 1   
    40   27   40 1   
    41   41   42 1   
    42   41   49 1   
    43   42   43 1   
    44   42   45 1   
    45   42   50 1   
    46   43   44 2   
    47   43   53 1   
    48   45   46 1   
    49   45   51 1   
    50   45   52 1   
    51   46   47 1   
    52   46   48 1   
    53   53   54 1   
    54   53   57 1   
    55   54   55 1   
    56   54   58 1   
    57   54   59 1   
    58   55   56 2   
    59   55   60 1   
    60   60   61 1   
    61   60   68 1   
    62   61   62 1   
    63   61   64 1   
    64   61   69 1   
    65   62   63 2   
    66   62   72 1   
    67   64   65 1   
    68   64   70 1   
    69   64   71 1   
    70   65   66 1   
    71   65   67 1   
    72   72   73 1   
    73   72   76 1   
    74   73   74 1   
    75   73   77 1   
    76   73   78 1   
    77   74   75 2   
    78   74   79 1   
    79   79   80 1   
    80   79   86 1   
    81   80   81 1   
    82   80   83 1   
    83   80   87 1   
    84   81   82 2   
    85   81   93 1   
    86   83   84 1   
    87   83   85 1   
    88   83   88 1   
    89   84   90 1   
    90   84   91 1   
    91   84   92 1   
    92   85   89 1   
    93   93   94 1   
    94   93  101 1   
    95   94   95 1   
    96   94   97 1   
    97   94  102 1   
    98   95   96 2   
    99   95  112 1   
   100   97   98 1   
   101   97   99 1   
   102   97  103 1   
   103   98  100 1   
   104   98  104 1   
   105   98  105 1   
   106   99  106 1   
   107   99  107 1   
   108   99  108 1   
   109  100  109 1   
   110  100  110 1   
   111  100  111 1   
   112  112  113 1   
   113  112  119 1   
   114  113  114 1   
   115  113  116 1   
   116  113  120 1   
   117  114  115 2   
   118  114  126 1   
   119  116  117 1   
   120  116  118 1   
   121  116  121 1   
   122  117  123 1   
   123  117  124 1   
   124  117  125 1   
   125  118  122 1   
   126  126  127 1   
   127  126  133 1   
   128  127  128 1   
   129  127  130 1   
   130  127  134 1   
   131  128  129 2   
   132  128  140 1   
   133  130  131 1   
   134  130  132 1   
   135  130  135 1   
   136  131  137 1   
   137  131  138 1   
   138  131  139 1   
   139  132  136 1   
   140  140  141 1   
   141  140  149 1   
   142  141  142 1   
   143  141  144 1   
   144  141  150 1   
   145  142  143 2   
   146  142  162 1   
   147  144  145 1   
   148  144  151 1   
   149  144  152 1   
   150  145  146 1   
   151  145  153 1   
   152  145  154 1   
   153  146  147 1   
   154  146  155 1   
   155  146  156 1   
   156  147  148 1   
   157  147  157 1   
   158  147  158 1   
   159  148  159 1   
   160  148  160 1   
   161  148  161 1   
   162  162  163 1   
   163  162  171 1   
   164  163  164 1   
   165  163  166 1   
   166  163  172 1   
   167  164  165 2   
   168  164  177 1   
   169  166  167 1   
   170  166  173 1   
   171  166  174 1   
   172  167  168 1   
   173  167  175 1   
   174  167  176 1   
   175  168  169 1   
   176  168  170 1   
   177  177  178 1   
   178  177  182 1   
   179  178  179 1   
   180  178  180 1   
   181  178  181 1   
   182  184  185 1   
   183  184  186 1   
   184  187  188 1   
   185  187  189 1   
   186  190  191 1   
   187  190  192 1   
@<TRIPOS>SUBSTRUCTURE
     1 MOL         1 TEMP              0 ****  ****    0 ROOT
