@<TRIPOS>MOLECULE
MOL
  192   187     1     0     0
SMALL
resp


@<TRIPOS>ATOM
      1 C1          5.7130    1.5330    5.7090 c3        1 MOL     -0.155212
      2 C2          5.1030    1.2970    4.3160 c         1 MOL      0.791279
      3 O1          4.6040    2.2080    3.6220 o         1 MOL     -0.611676
      4 H1          5.1510    0.9680    6.4520 hc        1 MOL      0.035680
      5 H2          6.7520    1.2040    5.7120 hc        1 MOL      0.035680
      6 H3          5.6670    2.5950    5.9500 hc        1 MOL      0.035680
      7 N1          5.1110    0.0450    3.7520 n         1 MOL     -0.820667
      8 C3          4.8870   -0.2890    2.3490 c3        1 MOL      0.829062
      9 C4          3.4550   -0.0880    1.8910 c         1 MOL     -0.359103
     10 O2          3.1060   -0.3130    0.7430 o         1 MOL     -0.053893
     11 C5          5.2730   -1.7390    2.0000 c3        1 MOL     -0.263511
     12 C6          6.6730   -2.0670    2.5650 c         1 MOL      0.719804
     13 O3          7.5830   -2.4490    1.7860 o         1 MOL     -0.699820
     14 O4          6.8530   -1.8710    3.7640 o         1 MOL     -0.699820
     15 H4          5.6410   -0.6250    4.2840 hn        1 MOL      0.340958
     16 H5          5.5200    0.4080    1.7970 h1        1 MOL     -0.009635
     17 H6          5.2970   -1.8480    0.9160 hc        1 MOL     -0.036414
     18 H7          4.5300   -2.4410    2.3790 hc        1 MOL     -0.036414
     19 N2          2.5160    0.1820    2.8250 n         1 MOL     -0.128214
     20 C7          1.0620    0.2220    2.5990 c3        1 MOL      0.028474
     21 C8          0.5690    1.6640    2.3010 c         1 MOL      0.270749
     22 O5          1.0220    2.6070    2.9340 o         1 MOL     -0.455120
     23 C9          0.3390   -0.3040    3.8630 c3        1 MOL     -0.056924
     24 C10         0.7110   -1.7290    4.1270 c3        1 MOL      0.114635
     25 C11        -0.2260   -2.5170    4.9870 c3        1 MOL     -0.160793
     26 C12         0.3040   -3.7600    5.7940 c3        1 MOL      0.120262
     27 N3         -0.8520   -4.4270    6.4730 n4        1 MOL     -0.343804
     28 H8          2.7630    0.4610    3.7720 hn        1 MOL      0.211416
     29 H9          0.7860   -0.4270    1.7700 h1        1 MOL      0.269055
     30 H10        -0.7240   -0.0630    3.8310 hc        1 MOL      0.041532
     31 H11         0.7130    0.2500    4.7270 hc        1 MOL      0.041532
     32 H12         1.6280   -1.7810    4.7270 hc        1 MOL     -0.010684
     33 H13         0.9230   -2.2350    3.1880 hc        1 MOL     -0.010684
     34 H14        -1.0430   -2.8660    4.3600 hc        1 MOL      0.051304
     35 H15        -0.6210   -1.7520    5.6560 hc        1 MOL      0.051304
     36 H16         0.9870   -3.3690    6.5440 hx        1 MOL      0.071027
     37 H17         0.9020   -4.5270    5.3110 hx        1 MOL      0.071027
     38 H18        -1.5610   -4.6650    5.7940 hn        1 MOL      0.301605
     39 H19        -0.5810   -5.2090    7.0340 hn        1 MOL      0.301605
     40 H20        -1.3600   -3.8040    7.0980 hn        1 MOL      0.301605
     41 N4         -0.3060    1.8960    1.3360 n         1 MOL     -0.072507
     42 C13        -1.0040    0.9210    0.4400 c3        1 MOL     -0.169688
     43 C14        -1.8110   -0.2110    1.0350 c         1 MOL      0.353370
     44 O6         -1.4140   -1.3900    0.9640 o         1 MOL     -0.583859
     45 C15        -0.1610    0.4680   -0.7250 c3        1 MOL     -0.194026
     46 C16         0.1580    1.6640   -1.6000 c         1 MOL      0.765979
     47 O7          0.7490    1.4190   -2.7060 o         1 MOL     -0.762883
     48 O8         -0.3540    2.7770   -1.4020 o         1 MOL     -0.762883
     49 H21        -0.4750    2.8760    1.1550 hn        1 MOL      0.129409
     50 H22        -1.7580    1.5020   -0.1050 h1        1 MOL      0.062751
     51 H23        -0.6000   -0.3140   -1.3380 hc        1 MOL      0.114945
     52 H24         0.7900    0.1120   -0.3270 hc        1 MOL      0.114945
     53 N5         -2.9520   -0.0430    1.7460 n         1 MOL     -0.054515
     54 C17        -3.6280    1.1910    2.0570 c3        1 MOL      0.052281
     55 C18        -4.9400    0.9600    2.8470 c         1 MOL      0.474052
     56 O9         -5.2070   -0.1160    3.4460 o         1 MOL     -0.560946
     57 H25        -3.2320   -0.8280    2.3270 hn        1 MOL      0.135593
     58 H26        -3.8600    1.6650    1.1030 h1        1 MOL      0.014335
     59 H27        -2.8980    1.7990    2.5880 h1        1 MOL      0.014335
     60 N6         -5.8230    1.9280    2.9260 n         1 MOL     -0.330978
     61 C19        -5.8450    3.1100    2.1360 c3        1 MOL     -0.122898
     62 C20        -6.8360    2.9950    0.9720 c         1 MOL      0.489838
     63 O10        -7.9660    2.5150    1.1120 o         1 MOL     -0.469681
     64 C21        -6.3410    4.3710    2.9710 c3        1 MOL     -0.242412
     65 C22        -5.6990    4.4830    4.3610 c         1 MOL      0.748156
     66 O11        -4.6440    5.1600    4.4860 o         1 MOL     -0.682660
     67 O12        -6.2330    3.9380    5.3490 o         1 MOL     -0.682660
     68 H28        -6.5550    1.7750    3.5970 hn        1 MOL      0.323070
     69 H29        -4.8230    3.3650    1.8310 h1        1 MOL      0.090295
     70 H30        -7.4390    4.3690    2.9900 hc        1 MOL      0.058984
     71 H31        -6.0430    5.2480    2.3890 hc        1 MOL      0.058984
     72 N7         -6.3650    3.4310   -0.2360 n         1 MOL     -0.242794
     73 C23        -7.1020    3.3170   -1.5470 c3        1 MOL     -0.225687
     74 C24        -7.2550    1.8590   -2.0460 c         1 MOL      0.630926
     75 O13        -8.3800    1.5050   -2.3960 o         1 MOL     -0.536849
     76 H32        -5.5510    4.0380   -0.2280 hn        1 MOL      0.215318
     77 H33        -6.5100    3.7260   -2.3550 h1        1 MOL      0.103540
     78 H34        -8.0510    3.8450   -1.4330 h1        1 MOL      0.103540
     79 N8         -6.1900    1.0660   -1.9120 n         1 MOL     -0.454067
     80 C25        -6.1370   -0.4260   -2.0190 c3        1 MOL      0.067006
     81 C26        -5.0690   -0.9610   -1.0210 c         1 MOL      0.302103
     82 O14        -3.9240   -0.4660   -0.9820 o         1 MOL     -0.433284
     83 C27        -5.7740   -0.9680   -3.4240 c3        1 MOL      0.266927
     84 C28        -6.8640   -0.5350   -4.4300 c3        1 MOL     -0.417866
     85 O15        -5.8000   -2.4560   -3.3320 oh        1 MOL     -0.630107
     86 H35        -5.3290    1.5460   -1.6850 hn        1 MOL      0.230597
     87 H36        -7.0720   -0.8430   -1.6410 h1        1 MOL      0.120561
     88 H37        -4.7610   -0.6250   -3.6710 h1        1 MOL      0.026099
     89 H38        -4.9940   -2.8100   -3.7240 ho        1 MOL      0.406556
     90 H39        -6.6560   -0.9370   -5.4330 hc        1 MOL      0.119660
     91 H40        -7.8240   -0.8850   -4.0510 hc        1 MOL      0.119660
     92 H41        -6.9080    0.5430   -4.5310 hc        1 MOL      0.119660
     93 N9         -5.3490   -2.1380   -0.4000 n         1 MOL     -0.299849
     94 C29        -4.3530   -2.9700    0.2530 c3        1 MOL     -0.007305
     95 C30        -3.3410   -3.6610   -0.6150 c         1 MOL      0.318997
     96 O16        -2.8330   -4.6980   -0.1980 o         1 MOL     -0.520306
     97 C31        -5.0350   -3.9140    1.3100 c3        1 MOL     -0.045372
     98 C32        -6.1050   -4.7550    0.6010 c3        1 MOL      0.072491
     99 C33        -5.6290   -3.0100    2.3810 c3        1 MOL     -0.131010
    100 C34        -5.5770   -5.9430   -0.2430 c3        1 MOL     -0.097815
    101 H42        -6.2850   -2.4940   -0.5230 hn        1 MOL      0.290300
    102 H43        -3.7970   -2.3100    0.9250 h1        1 MOL      0.141670
    103 H44        -4.3130   -4.5540    1.7910 hc        1 MOL      0.071781
    104 H45        -6.7420   -4.1490   -0.0350 hc        1 MOL     -0.010597
    105 H46        -6.7430   -5.2260    1.3560 hc        1 MOL     -0.010597
    106 H47        -4.7870   -2.6130    2.9510 hc        1 MOL      0.037123
    107 H48        -6.1930   -2.2080    1.9120 hc        1 MOL      0.037123
    108 H49        -6.2350   -3.5070    3.1390 hc        1 MOL      0.037123
    109 H50        -6.3460   -6.7100   -0.3200 hc        1 MOL      0.024161
    110 H51        -5.2600   -5.6210   -1.2360 hc        1 MOL      0.024161
    111 H52        -4.7110   -6.4050    0.2380 hc        1 MOL      0.024161
    112 N10        -2.9400   -3.0760   -1.7730 n         1 MOL      0.089120
    113 C35        -2.0090   -3.6310   -2.8120 c3        1 MOL     -0.077560
    114 C36        -0.5500   -3.6970   -2.5110 c         1 MOL      0.315822
    115 O17         0.2060   -4.3570   -3.1570 o         1 MOL     -0.488761
    116 C37        -2.2750   -3.0010   -4.1490 c3        1 MOL      0.138541
    117 C38        -2.0540   -1.4850   -4.2010 c3        1 MOL     -0.258146
    118 O18        -3.5350   -3.4220   -4.5540 oh        1 MOL     -0.604748
    119 H53        -3.3940   -2.2100   -2.0350 hn        1 MOL      0.002669
    120 H54        -2.2670   -4.6870   -2.9320 h1        1 MOL      0.116346
    121 H55        -1.5550   -3.4520   -4.8430 h1        1 MOL      0.082954
    122 H56        -3.4660   -3.3580   -5.5090 ho        1 MOL      0.420557
    123 H57        -0.9950   -1.2260   -4.2430 hc        1 MOL      0.093527
    124 H58        -2.5150   -0.9600   -5.0350 hc        1 MOL      0.093527
    125 H59        -2.5010   -1.0030   -3.3340 hc        1 MOL      0.093527
    126 N11        -0.1740   -2.9550   -1.4510 n         1 MOL     -0.041519
    127 C39         1.2410   -2.7060   -1.0710 c3        1 MOL      0.037041
    128 C40         2.1500   -2.1600   -2.2130 c         1 MOL      0.340861
    129 O19         1.8850   -2.2760   -3.4240 o         1 MOL     -0.467902
    130 C41         1.7960   -3.9610   -0.3630 c3        1 MOL      0.230173
    131 C42         0.9140   -4.4140    0.8280 c3        1 MOL     -0.448798
    132 O20         3.0920   -3.6810    0.1920 oh        1 MOL     -0.458292
    133 H60        -0.9290   -2.6030   -0.8860 hn        1 MOL      0.162333
    134 H61         1.2650   -2.0100   -0.2430 h1        1 MOL     -0.058662
    135 H62         1.8850   -4.7810   -1.0710 h1        1 MOL      0.032508
    136 H63         3.5630   -4.5070    0.3080 ho        1 MOL      0.340398
    137 H64         0.0190   -4.8780    0.4170 hc        1 MOL      0.111883
    138 H65         1.4630   -4.9770    1.5780 hc        1 MOL      0.111883
    139 H66         0.5170   -3.5350    1.3320 hc        1 MOL      0.111883
    140 N12         3.3080   -1.5580   -1.8750 n         1 MOL     -0.281317
    141 C43         4.4020   -1.0610   -2.7350 c3        1 MOL      0.029180
    142 C44         4.7370    0.4320   -2.5490 c         1 MOL      0.621695
    143 O21         5.2900    1.0350   -3.4430 o         1 MOL     -0.664295
    144 C45         5.6020   -1.9820   -2.5200 c3        1 MOL     -0.095572
    145 C46         5.3810   -3.4170   -2.9940 c3        1 MOL      0.191809
    146 C47         6.5330   -4.3570   -2.5660 c3        1 MOL     -0.413834
    147 C48         6.8860   -4.4090   -1.0500 c3        1 MOL      0.242440
    148 N13         7.8060   -5.5170   -0.6960 n4        1 MOL     -0.432733
    149 H67         3.5630   -1.7550   -0.9160 hn        1 MOL      0.229548
    150 H68         4.1680   -1.1830   -3.7930 h1        1 MOL      0.066327
    151 H69         5.8040   -2.0090   -1.4540 hc        1 MOL      0.050895
    152 H70         6.4300   -1.4500   -2.9860 hc        1 MOL      0.050895
    153 H71         5.2580   -3.3380   -4.0760 hc        1 MOL      0.004653
    154 H72         4.5330   -3.9790   -2.5850 hc        1 MOL      0.004653
    155 H73         7.4220   -3.9680   -3.0730 hc        1 MOL      0.103310
    156 H74         6.3760   -5.3760   -2.9210 hc        1 MOL      0.103310
    157 H75         5.9760   -4.3580   -0.4490 hx        1 MOL      0.042157
    158 H76         7.3390   -3.4550   -0.7810 hx        1 MOL      0.042157
    159 H77         7.8500   -5.6930    0.2960 hn        1 MOL      0.335410
    160 H78         7.4400   -6.3890   -1.0540 hn        1 MOL      0.335410
    161 H79         8.7600   -5.4200   -1.0020 hn        1 MOL      0.335410
    162 N14         4.5370    1.0270   -1.3790 n         1 MOL     -0.010094
    163 C49         4.9260    2.3530   -1.0090 c3        1 MOL     -0.606868
    164 C50         6.3900    2.6350   -0.6330 c         1 MOL      0.395592
    165 O22         6.8500    2.0640    0.3680 o         1 MOL     -0.509736
    166 C51         3.9710    2.9280    0.0260 c3        1 MOL      1.076632
    167 C52         4.1120    4.4070    0.3720 c3        1 MOL     -1.063846
    168 C53         3.8870    5.2890   -0.9170 c         1 MOL      1.070088
    169 O23         4.8840    5.5390   -1.6260 o         1 MOL     -0.859028
    170 O24         2.7330    5.7480   -1.2220 o         1 MOL     -0.859028
    171 H80         3.9020    0.4500   -0.8430 hn        1 MOL     -0.084705
    172 H81         4.7390    2.9710   -1.8800 h1        1 MOL      0.215181
    173 H82         4.0700    2.3690    0.9580 hc        1 MOL     -0.239179
    174 H83         2.9660    2.8130   -0.3720 hc        1 MOL     -0.239179
    175 H84         5.0570    4.5320    0.8990 hc        1 MOL      0.261422
    176 H85         3.3550    4.7760    1.0750 hc        1 MOL      0.261422
    177 N15         6.9480    3.6160   -1.2940 n         1 MOL     -0.093105
    178 C54         8.2740    4.2220   -1.1250 c3        1 MOL     -0.261646
    179 H86         8.7590    3.7940   -0.2470 h1        1 MOL      0.108541
    180 H87         8.8810    4.0230   -2.0070 h1        1 MOL      0.108541
    181 H88         8.1690    5.2990   -0.9920 h1        1 MOL      0.108541
    182 H89         6.4450    3.8970   -2.1180 hn        1 MOL      0.314852
    183 Ca1         0.4000    5.0710   -2.1590 Ca        1 MOL      1.667843
    184 O25        -0.2860    4.4100   -4.6990 oh        1 MOL     -0.811163
    185 H90        -0.8530    3.6930   -4.9800 ho        1 MOL      0.411536
    186 H91         0.4260    4.4200   -5.3520 ho        1 MOL      0.411536
    187 O26         1.6070    6.5210   -4.0180 oh        1 MOL     -0.811163
    188 H92         2.5700    6.5050   -3.9560 ho        1 MOL      0.411536
    189 H93         1.3610    7.3550   -3.5960 ho        1 MOL      0.411536
    190 O27         2.3530    3.4540   -3.1810 oh        1 MOL     -0.811163
    191 H94         1.9120    2.6460   -2.9230 ho        1 MOL      0.411536
    192 H95         2.9570    3.1880   -3.8700 ho        1 MOL      0.411536
@<TRIPOS>BOND
     1    1    2 1   
     2    1    4 1   
     3    1    5 1   
     4    1    6 1   
     5    2    3 2   
     6    2    7 1   
     7    7    8 1   
     8    7   15 1   
     9    8    9 1   
    10    8   11 1   
    11    8   16 1   
    12    9   10 2   
    13    9   19 1   
    14   11   12 1   
    15   11   17 1   
    16   11   18 1   
    17   12   13 1   
    18   12   14 1   
    19   19   20 1   
    20   19   28 1   
    21   20   21 1   
    22   20   23 1   
    23   20   29 1   
    24   21   22 2   
    25   21   41 1   
    26   23   24 1   
    27   23   30 1   
    28   23   31 1   
    29   24   25 1   
    30   24   32 1   
    31   24   33 1   
    32   25   26 1   
    33   25   34 1   
    34   25   35 1   
    35   26   27 1   
    36   26   36 1   
    37   26   37 1   
    38   27   38 1   
    39   27   39 1   
    40   27   40 1   
    41   41   42 1   
    42   41   49 1   
    43   42   43 1   
    44   42   45 1   
    45   42   50 1   
    46   43   44 2   
    47   43   53 1   
    48   45   46 1   
    49   45   51 1   
    50   45   52 1   
    51   46   47 1   
    52   46   48 1   
    53   53   54 1   
    54   53   57 1   
    55   54   55 1   
    56   54   58 1   
    57   54   59 1   
    58   55   56 2   
    59   55   60 1   
    60   60   61 1   
    61   60   68 1   
    62   61   62 1   
    63   61   64 1   
    64   61   69 1   
    65   62   63 2   
    66   62   72 1   
    67   64   65 1   
    68   64   70 1   
    69   64   71 1   
    70   65   66 1   
    71   65   67 1   
    72   72   73 1   
    73   72   76 1   
    74   73   74 1   
    75   73   77 1   
    76   73   78 1   
    77   74   75 2   
    78   74   79 1   
    79   79   80 1   
    80   79   86 1   
    81   80   81 1   
    82   80   83 1   
    83   80   87 1   
    84   81   82 2   
    85   81   93 1   
    86   83   84 1   
    87   83   85 1   
    88   83   88 1   
    89   84   90 1   
    90   84   91 1   
    91   84   92 1   
    92   85   89 1   
    93   93   94 1   
    94   93  101 1   
    95   94   95 1   
    96   94   97 1   
    97   94  102 1   
    98   95   96 2   
    99   95  112 1   
   100   97   98 1   
   101   97   99 1   
   102   97  103 1   
   103   98  100 1   
   104   98  104 1   
   105   98  105 1   
   106   99  106 1   
   107   99  107 1   
   108   99  108 1   
   109  100  109 1   
   110  100  110 1   
   111  100  111 1   
   112  112  113 1   
   113  112  119 1   
   114  113  114 1   
   115  113  116 1   
   116  113  120 1   
   117  114  115 2   
   118  114  126 1   
   119  116  117 1   
   120  116  118 1   
   121  116  121 1   
   122  117  123 1   
   123  117  124 1   
   124  117  125 1   
   125  118  122 1   
   126  126  127 1   
   127  126  133 1   
   128  127  128 1   
   129  127  130 1   
   130  127  134 1   
   131  128  129 2   
   132  128  140 1   
   133  130  131 1   
   134  130  132 1   
   135  130  135 1   
   136  131  137 1   
   137  131  138 1   
   138  131  139 1   
   139  132  136 1   
   140  140  141 1   
   141  140  149 1   
   142  141  142 1   
   143  141  144 1   
   144  141  150 1   
   145  142  143 2   
   146  142  162 1   
   147  144  145 1   
   148  144  151 1   
   149  144  152 1   
   150  145  146 1   
   151  145  153 1   
   152  145  154 1   
   153  146  147 1   
   154  146  155 1   
   155  146  156 1   
   156  147  148 1   
   157  147  157 1   
   158  147  158 1   
   159  148  159 1   
   160  148  160 1   
   161  148  161 1   
   162  162  163 1   
   163  162  171 1   
   164  163  164 1   
   165  163  166 1   
   166  163  172 1   
   167  164  165 2   
   168  164  177 1   
   169  166  167 1   
   170  166  173 1   
   171  166  174 1   
   172  167  168 1   
   173  167  175 1   
   174  167  176 1   
   175  168  169 1   
   176  168  170 1   
   177  177  178 1   
   178  177  182 1   
   179  178  179 1   
   180  178  180 1   
   181  178  181 1   
   182  184  185 1   
   183  184  186 1   
   184  187  188 1   
   185  187  189 1   
   186  190  191 1   
   187  190  192 1   
@<TRIPOS>SUBSTRUCTURE
     1 MOL         1 TEMP              0 ****  ****    0 ROOT
