@<TRIPOS>MOLECULE
MOL
  192   187     1     0     0
SMALL
resp


@<TRIPOS>ATOM
      1 C1          9.5610    1.0860    1.2490 c3        1 MOL     -0.351819
      2 C2          8.3250    0.5120    0.6400 c         1 MOL      0.647908
      3 O1          7.2920    0.3610    1.2650 o         1 MOL     -0.604892
      4 H1          9.6110    2.1530    1.0310 hc        1 MOL      0.095394
      5 H2          9.5380    0.9370    2.3280 hc        1 MOL      0.095394
      6 H3         10.4360    0.5900    0.8310 hc        1 MOL      0.095394
      7 N1          8.4090    0.0210   -0.6690 n         1 MOL     -0.477252
      8 C3          7.3550   -0.5620   -1.5130 c3        1 MOL     -0.028897
      9 C4          6.7530   -1.9680   -1.0760 c         1 MOL      0.515327
     10 O2          6.7330   -2.8040   -1.9040 o         1 MOL     -0.438373
     11 C5          7.9200   -0.5300   -2.9770 c3        1 MOL     -0.241937
     12 C6          9.1750   -1.3620   -3.2840 c         1 MOL      0.715392
     13 O3          9.4010   -1.5450   -4.4950 o         1 MOL     -0.653662
     14 O4          9.8790   -1.8740   -2.3580 o         1 MOL     -0.653662
     15 H4          9.3120   -0.0140   -1.1250 hn        1 MOL      0.261813
     16 H5          6.5110    0.1300   -1.4930 h1        1 MOL      0.117875
     17 H6          8.1090    0.5230   -3.1900 hc        1 MOL      0.077626
     18 H7          7.0860   -0.8910   -3.5790 hc        1 MOL      0.077626
     19 N2          6.2840   -2.1770    0.1650 n         1 MOL     -0.456164
     20 C7          5.8400   -3.4560    0.8220 c3        1 MOL      0.528731
     21 C8          4.4150   -3.8960    0.5700 c         1 MOL      0.320701
     22 O5          4.1800   -5.1010    0.1970 o         1 MOL     -0.507352
     23 C9          6.1510   -3.4760    2.3430 c3        1 MOL     -0.168694
     24 C10         7.6810   -3.0620    2.6050 c3        1 MOL      0.042204
     25 C11         8.3100   -3.6860    3.8270 c3        1 MOL      0.110824
     26 C12         9.7600   -3.2800    4.1360 c3        1 MOL     -0.126425
     27 N3         10.1190   -3.8770    5.4790 n4        1 MOL     -0.050060
     28 H8          6.3830   -1.3450    0.7400 hn        1 MOL      0.135241
     29 H9          6.3450   -4.3010    0.3560 h1        1 MOL     -0.033668
     30 H10         6.0670   -4.5200    2.6630 hc        1 MOL      0.028521
     31 H11         5.5590   -2.7630    2.8990 hc        1 MOL      0.028521
     32 H12         7.8140   -1.9800    2.6910 hc        1 MOL      0.009067
     33 H13         8.2450   -3.4310    1.7470 hc        1 MOL      0.009067
     34 H14         8.1410   -4.7530    3.9300 hc        1 MOL     -0.011816
     35 H15         7.6780   -3.2290    4.5860 hc        1 MOL     -0.011816
     36 H16         9.7860   -2.1910    4.1690 hx        1 MOL      0.110613
     37 H17        10.4210   -3.7550    3.4070 hx        1 MOL      0.110613
     38 H18        11.0540   -3.6540    5.7900 hn        1 MOL      0.203914
     39 H19         9.4740   -3.5130    6.1620 hn        1 MOL      0.203914
     40 H20         9.9560   -4.8770    5.5340 hn        1 MOL      0.203914
     41 N4          3.3740   -2.9920    0.6790 n         1 MOL     -0.457803
     42 C13         3.4870   -1.6140    1.2560 c3        1 MOL     -0.038872
     43 C14         3.6130   -0.5440    0.1270 c         1 MOL      0.167758
     44 O6          3.8650   -0.9240   -1.0280 o         1 MOL     -0.384085
     45 C15         2.2360   -1.3830    2.1750 c3        1 MOL     -0.045377
     46 C16         0.8780   -1.5980    1.4570 c         1 MOL      0.525232
     47 O7          0.6720   -1.0530    0.3610 o         1 MOL     -0.610071
     48 O8          0.0670   -2.3490    1.9560 o         1 MOL     -0.610071
     49 H21         2.6220   -3.1590    0.0270 hn        1 MOL      0.398691
     50 H22         4.3740   -1.5050    1.8760 h1        1 MOL      0.152702
     51 H23         2.3730   -0.3850    2.6050 hc        1 MOL      0.017503
     52 H24         2.3360   -2.0690    3.0120 hc        1 MOL      0.017503
     53 N5          3.8310    0.7350    0.5680 n         1 MOL     -0.090868
     54 C17         4.0360    1.9090   -0.2070 c3        1 MOL     -0.202515
     55 C18         2.8250    2.5080   -0.9520 c         1 MOL      0.640775
     56 O9          1.7100    1.9760   -0.7790 o         1 MOL     -0.661711
     57 H25         3.8900    0.8180    1.5740 hn        1 MOL      0.233688
     58 H26         4.7130    1.6100   -1.0120 h1        1 MOL      0.093336
     59 H27         4.3440    2.7070    0.4610 h1        1 MOL      0.093336
     60 N6          3.0180    3.6040   -1.7130 n         1 MOL     -0.538498
     61 C19         2.1180    4.3670   -2.5000 c3        1 MOL      0.295847
     62 C20         2.5830    5.8380   -2.5340 c         1 MOL      0.416757
     63 O10         3.7660    6.1770   -2.2590 o         1 MOL     -0.532479
     64 C21         1.9580    3.7890   -3.9590 c3        1 MOL     -0.240451
     65 C22         1.2390    2.4490   -3.9560 c         1 MOL      0.698624
     66 O11         0.1540    2.4350   -3.3400 o         1 MOL     -0.673590
     67 O12         1.5160    1.6030   -4.8660 o         1 MOL     -0.673590
     68 H28         3.9640    3.9640   -1.7910 hn        1 MOL      0.286980
     69 H29         1.1210    4.3780   -2.0610 h1        1 MOL      0.058313
     70 H30         2.8620    3.7220   -4.5580 hc        1 MOL      0.068681
     71 H31         1.2770    4.5190   -4.4020 hc        1 MOL      0.068681
     72 N7          1.7090    6.7930   -2.7820 n         1 MOL     -0.423413
     73 C23         0.2540    6.6860   -2.7430 c3        1 MOL     -0.254982
     74 C24        -0.4000    6.3150   -1.3510 c         1 MOL      0.718227
     75 O13         0.0880    6.5770   -0.2630 o         1 MOL     -0.533300
     76 H32         2.0190    7.7600   -2.8450 hn        1 MOL      0.339848
     77 H33        -0.1750    6.1470   -3.5820 h1        1 MOL      0.122091
     78 H34        -0.0240    7.7380   -2.8470 h1        1 MOL      0.122091
     79 N8         -1.5240    5.6360   -1.4760 n         1 MOL     -0.742344
     80 C25        -2.2860    5.0490   -0.3730 c3        1 MOL      0.048141
     81 C26        -1.5110    3.9510    0.3940 c         1 MOL      0.796685
     82 O14        -1.0270    3.0390   -0.3080 o         1 MOL     -0.710994
     83 C27        -3.6880    4.4830   -0.7550 c3        1 MOL      0.610316
     84 C28        -4.6130    5.4630   -1.4850 c3        1 MOL     -0.378988
     85 O15        -4.2680    4.0640    0.4090 oh        1 MOL     -0.694547
     86 H35        -1.9300    5.6690   -2.3950 hn        1 MOL      0.345660
     87 H36        -2.4450    5.8350    0.3560 h1        1 MOL      0.039067
     88 H37        -3.4780    3.5870   -1.3550 h1        1 MOL     -0.050349
     89 H38        -4.5840    3.1690    0.2680 ho        1 MOL      0.359521
     90 H39        -4.4570    6.4720   -1.1160 hc        1 MOL      0.090441
     91 H40        -4.4630    5.4280   -2.5670 hc        1 MOL      0.090441
     92 H41        -5.6530    5.2490   -1.2400 hc        1 MOL      0.090441
     93 N9         -1.5630    3.9440    1.7040 n         1 MOL     -0.669470
     94 C29        -0.9200    2.9430    2.6400 c3        1 MOL      0.116606
     95 C30        -1.4370    1.5560    2.3380 c         1 MOL      0.633617
     96 O16        -1.1190    0.8850    1.3470 o         1 MOL     -0.561191
     97 C31         0.5760    3.0270    2.7870 c3        1 MOL      0.345177
     98 C32         1.1720    4.3890    3.0160 c3        1 MOL     -0.056301
     99 C33         0.9200    2.1560    4.0100 c3        1 MOL     -0.384322
    100 C34         0.8570    5.1150    4.3040 c3        1 MOL     -0.480404
    101 H42        -2.0320    4.6950    2.1740 hn        1 MOL      0.328991
    102 H43        -1.3100    3.3370    3.5780 h1        1 MOL      0.023470
    103 H44         1.0260    2.5780    1.8990 hc        1 MOL     -0.082827
    104 H45         0.8490    5.0960    2.2520 hc        1 MOL      0.069235
    105 H46         2.2460    4.2440    2.9000 hc        1 MOL      0.069235
    106 H47         1.9300    2.3960    4.3520 hc        1 MOL      0.081351
    107 H48         0.2530    2.4110    4.8340 hc        1 MOL      0.081351
    108 H49         0.7260    1.0990    3.8010 hc        1 MOL      0.081351
    109 H50         1.3680    6.0750    4.2610 hc        1 MOL      0.124459
    110 H51        -0.2160    5.3110    4.4010 hc        1 MOL      0.124459
    111 H52         1.2920    4.5210    5.1070 hc        1 MOL      0.124459
    112 N10        -2.3740    1.1020    3.1810 n         1 MOL     -0.444929
    113 C35        -2.7570   -0.3100    3.1490 c3        1 MOL      0.181645
    114 C36        -4.2990   -0.5420    3.0970 c         1 MOL      0.293215
    115 O17        -4.8240   -1.5910    3.3810 o         1 MOL     -0.503470
    116 C37        -2.2120   -1.1530    4.2840 c3        1 MOL      0.485202
    117 C38        -2.6730   -0.7710    5.6840 c3        1 MOL     -0.584125
    118 O18        -0.7960   -1.1120    4.2930 oh        1 MOL     -0.626548
    119 H53        -2.5110    1.5990    4.0530 hn        1 MOL      0.212988
    120 H54        -2.2900   -0.8640    2.3260 h1        1 MOL      0.020130
    121 H55        -2.4330   -2.1790    3.9760 h1        1 MOL     -0.007949
    122 H56        -0.5990   -1.6780    3.5410 ho        1 MOL      0.339704
    123 H57        -3.5870   -1.2710    5.9980 hc        1 MOL      0.145946
    124 H58        -1.8960   -1.1110    6.3720 hc        1 MOL      0.145946
    125 H59        -2.4910    0.3050    5.7380 hc        1 MOL      0.145946
    126 N11        -5.0610    0.4860    2.6800 n         1 MOL     -0.169171
    127 C39        -6.4570    0.2810    2.4020 c3        1 MOL     -0.016474
    128 C40        -6.6830   -0.3890    1.0630 c         1 MOL      0.532733
    129 O19        -6.9000    0.2740    0.0080 o         1 MOL     -0.493382
    130 C41        -7.2890    1.5020    2.5390 c3        1 MOL      0.216042
    131 C42        -7.6320    1.8320    4.0100 c3        1 MOL     -0.194057
    132 O20        -6.5450    2.5910    2.0190 oh        1 MOL     -0.545994
    133 H60        -4.7020    1.4120    2.4880 hn        1 MOL      0.145565
    134 H61        -6.9340   -0.3650    3.1450 h1        1 MOL      0.062419
    135 H62        -8.1900    1.3210    1.9390 h1        1 MOL      0.082095
    136 H63        -5.8420    2.7540    2.6550 ho        1 MOL      0.374975
    137 H64        -6.6820    1.9110    4.5410 hc        1 MOL      0.047749
    138 H65        -8.1300    2.7920    4.0910 hc        1 MOL      0.047749
    139 H66        -8.2320    1.0810    4.5120 hc        1 MOL      0.047749
    140 N12        -6.7530   -1.7750    1.1240 n         1 MOL     -0.635316
    141 C43        -6.4740   -2.6310   -0.0400 c3        1 MOL      0.379513
    142 C44        -5.1120   -2.2940   -0.7190 c         1 MOL      0.500624
    143 O21        -4.4810   -1.2680   -0.3820 o         1 MOL     -0.454785
    144 C45        -7.6370   -2.6240   -1.0350 c3        1 MOL     -0.448729
    145 C46        -9.0220   -2.6990   -0.4300 c3        1 MOL      0.663403
    146 C47       -10.0640   -2.5030   -1.4400 c3        1 MOL     -0.204144
    147 C48       -11.5170   -2.5760   -0.9240 c3        1 MOL     -0.004980
    148 N13       -11.9180   -3.8540   -0.3800 n4        1 MOL     -0.204931
    149 H67        -6.6850   -2.1820    2.0420 hn        1 MOL      0.316644
    150 H68        -6.3290   -3.6670    0.2690 h1        1 MOL     -0.004457
    151 H69        -7.4980   -3.5580   -1.5850 hc        1 MOL      0.067023
    152 H70        -7.4590   -1.7510   -1.6590 hc        1 MOL      0.067023
    153 H71        -9.1470   -2.0230    0.4190 hc        1 MOL     -0.164109
    154 H72        -9.1040   -3.6950    0.0060 hc        1 MOL     -0.164109
    155 H73        -9.9520   -3.2710   -2.2070 hc        1 MOL      0.070584
    156 H74        -9.9100   -1.5170   -1.8640 hc        1 MOL      0.070584
    157 H75       -12.2480   -2.3510   -1.7000 hx        1 MOL      0.088662
    158 H76       -11.6950   -1.7980   -0.1810 hx        1 MOL      0.088662
    159 H77       -11.6820   -4.5760   -1.0510 hn        1 MOL      0.228767
    160 H78       -11.3110   -4.1030    0.3960 hn        1 MOL      0.228767
    161 H79       -12.8580   -3.8310   -0.0300 hn        1 MOL      0.228767
    162 N14        -4.6460   -3.2500   -1.5740 n         1 MOL     -0.595308
    163 C49        -3.2820   -3.1460   -2.0850 c3        1 MOL      0.264350
    164 C50        -2.1650   -2.6480   -1.1770 c         1 MOL      0.217561
    165 O22        -1.5910   -1.6300   -1.4530 o         1 MOL     -0.509344
    166 C51        -2.8080   -4.5010   -2.7400 c3        1 MOL     -0.058601
    167 C52        -3.6380   -4.8690   -3.9890 c3        1 MOL     -0.171534
    168 C53        -3.2270   -6.1890   -4.6020 c         1 MOL      0.665142
    169 O23        -2.2160   -6.1880   -5.2940 o         1 MOL     -0.629906
    170 O24        -3.8240   -7.2450   -4.2840 o         1 MOL     -0.629906
    171 H80        -5.2610   -4.0380   -1.6830 hn        1 MOL      0.359105
    172 H81        -3.4440   -2.4130   -2.8790 h1        1 MOL      0.022545
    173 H82        -2.8490   -5.2880   -1.9950 hc        1 MOL      0.088500
    174 H83        -1.8300   -4.1990   -3.0980 hc        1 MOL      0.088500
    175 H84        -3.4700   -4.0920   -4.7430 hc        1 MOL      0.006271
    176 H85        -4.6860   -4.9380   -3.6830 hc        1 MOL      0.006271
    177 N15        -1.9040   -3.1830    0.0340 n         1 MOL     -0.242299
    178 C54        -2.4450   -4.4280    0.5740 c3        1 MOL     -0.032947
    179 H86        -3.1350   -4.2010    1.3880 h1        1 MOL      0.029537
    180 H87        -2.9760   -4.9650   -0.2120 h1        1 MOL      0.029537
    181 H88        -1.6310   -5.0460    0.9510 h1        1 MOL      0.029537
    182 H89        -1.3890   -2.6030    0.6810 hn        1 MOL      0.352522
    183 Ca1        -0.4340    0.6820   -1.3020 Ca        1 MOL      1.759411
    184 O25        -3.2470    0.9930   -1.1670 oh        1 MOL     -0.823717
    185 H90        -3.5720    0.1730   -0.8020 ho        1 MOL      0.401703
    186 H91        -3.6680    1.0510   -2.0290 ho        1 MOL      0.401703
    187 O26        -1.8960    0.0120   -3.8940 oh        1 MOL     -0.823717
    188 H92        -2.7110   -0.1530   -4.3720 ho        1 MOL      0.401703
    189 H93        -1.2980   -0.6720   -4.1850 ho        1 MOL      0.401703
    190 O27         1.1410   -0.6140   -3.0750 oh        1 MOL     -0.823717
    191 H94         1.9310   -1.1020   -2.8640 ho        1 MOL      0.401703
    192 H95         1.3630   -0.1340   -3.8680 ho        1 MOL      0.401703
@<TRIPOS>BOND
     1    1    2 1   
     2    1    4 1   
     3    1    5 1   
     4    1    6 1   
     5    2    3 2   
     6    2    7 1   
     7    7    8 1   
     8    7   15 1   
     9    8    9 1   
    10    8   11 1   
    11    8   16 1   
    12    9   10 2   
    13    9   19 1   
    14   11   12 1   
    15   11   17 1   
    16   11   18 1   
    17   12   13 1   
    18   12   14 1   
    19   19   20 1   
    20   19   28 1   
    21   20   21 1   
    22   20   23 1   
    23   20   29 1   
    24   21   22 2   
    25   21   41 1   
    26   23   24 1   
    27   23   30 1   
    28   23   31 1   
    29   24   25 1   
    30   24   32 1   
    31   24   33 1   
    32   25   26 1   
    33   25   34 1   
    34   25   35 1   
    35   26   27 1   
    36   26   36 1   
    37   26   37 1   
    38   27   38 1   
    39   27   39 1   
    40   27   40 1   
    41   41   42 1   
    42   41   49 1   
    43   42   43 1   
    44   42   45 1   
    45   42   50 1   
    46   43   44 2   
    47   43   53 1   
    48   45   46 1   
    49   45   51 1   
    50   45   52 1   
    51   46   47 1   
    52   46   48 1   
    53   53   54 1   
    54   53   57 1   
    55   54   55 1   
    56   54   58 1   
    57   54   59 1   
    58   55   56 2   
    59   55   60 1   
    60   60   61 1   
    61   60   68 1   
    62   61   62 1   
    63   61   64 1   
    64   61   69 1   
    65   62   63 2   
    66   62   72 1   
    67   64   65 1   
    68   64   70 1   
    69   64   71 1   
    70   65   66 1   
    71   65   67 1   
    72   72   73 1   
    73   72   76 1   
    74   73   74 1   
    75   73   77 1   
    76   73   78 1   
    77   74   75 2   
    78   74   79 1   
    79   79   80 1   
    80   79   86 1   
    81   80   81 1   
    82   80   83 1   
    83   80   87 1   
    84   81   82 2   
    85   81   93 1   
    86   83   84 1   
    87   83   85 1   
    88   83   88 1   
    89   84   90 1   
    90   84   91 1   
    91   84   92 1   
    92   85   89 1   
    93   93   94 1   
    94   93  101 1   
    95   94   95 1   
    96   94   97 1   
    97   94  102 1   
    98   95   96 2   
    99   95  112 1   
   100   97   98 1   
   101   97   99 1   
   102   97  103 1   
   103   98  100 1   
   104   98  104 1   
   105   98  105 1   
   106   99  106 1   
   107   99  107 1   
   108   99  108 1   
   109  100  109 1   
   110  100  110 1   
   111  100  111 1   
   112  112  113 1   
   113  112  119 1   
   114  113  114 1   
   115  113  116 1   
   116  113  120 1   
   117  114  115 2   
   118  114  126 1   
   119  116  117 1   
   120  116  118 1   
   121  116  121 1   
   122  117  123 1   
   123  117  124 1   
   124  117  125 1   
   125  118  122 1   
   126  126  127 1   
   127  126  133 1   
   128  127  128 1   
   129  127  130 1   
   130  127  134 1   
   131  128  129 2   
   132  128  140 1   
   133  130  131 1   
   134  130  132 1   
   135  130  135 1   
   136  131  137 1   
   137  131  138 1   
   138  131  139 1   
   139  132  136 1   
   140  140  141 1   
   141  140  149 1   
   142  141  142 1   
   143  141  144 1   
   144  141  150 1   
   145  142  143 2   
   146  142  162 1   
   147  144  145 1   
   148  144  151 1   
   149  144  152 1   
   150  145  146 1   
   151  145  153 1   
   152  145  154 1   
   153  146  147 1   
   154  146  155 1   
   155  146  156 1   
   156  147  148 1   
   157  147  157 1   
   158  147  158 1   
   159  148  159 1   
   160  148  160 1   
   161  148  161 1   
   162  162  163 1   
   163  162  171 1   
   164  163  164 1   
   165  163  166 1   
   166  163  172 1   
   167  164  165 2   
   168  164  177 1   
   169  166  167 1   
   170  166  173 1   
   171  166  174 1   
   172  167  168 1   
   173  167  175 1   
   174  167  176 1   
   175  168  169 1   
   176  168  170 1   
   177  177  178 1   
   178  177  182 1   
   179  178  179 1   
   180  178  180 1   
   181  178  181 1   
   182  184  185 1   
   183  184  186 1   
   184  187  188 1   
   185  187  189 1   
   186  190  191 1   
   187  190  192 1   
@<TRIPOS>SUBSTRUCTURE
     1 MOL         1 TEMP              0 ****  ****    0 ROOT
