@<TRIPOS>MOLECULE
MOL
  178   175     1     0     0
SMALL
resp


@<TRIPOS>ATOM
      1 C1          4.5340   -3.1550    2.9920 c3        1 MOL     -0.392450
      2 C2          5.7500   -2.3830    2.5160 c         1 MOL      0.818507
      3 O1          5.6520   -1.2790    2.0990 o         1 MOL     -0.602854
      4 H1          4.3290   -3.9710    2.3000 hc        1 MOL      0.093229
      5 H2          4.7270   -3.5620    3.9850 hc        1 MOL      0.093229
      6 H3          3.6720   -2.4880    3.0330 hc        1 MOL      0.093229
      7 N1          6.9560   -2.9470    2.6620 n         1 MOL     -0.675184
      8 C3          8.2070   -2.1680    2.6050 c3        1 MOL      0.243538
      9 C4          8.4870   -1.8020    1.1630 c         1 MOL      0.594989
     10 O2          8.5170   -2.7050    0.3320 o         1 MOL     -0.539620
     11 C5          9.3740   -2.8780    3.2010 c3        1 MOL     -0.123410
     12 C6         10.6050   -1.9690    3.3080 c         1 MOL      0.629569
     13 O3         10.4100   -0.7760    3.7110 o         1 MOL     -0.704852
     14 O4         11.7890   -2.5060    3.1860 o         1 MOL     -0.704852
     15 H4          6.9640   -3.9210    2.9310 hn        1 MOL      0.302239
     16 H5          8.0020   -1.2870    3.2070 h1        1 MOL     -0.012049
     17 H6          9.6200   -3.5940    2.4110 hc        1 MOL      0.005587
     18 H7          9.1650   -3.4720    4.0970 hc        1 MOL      0.005587
     19 N2          8.7650   -0.5250    0.9220 n         1 MOL     -0.531818
     20 C7          8.9030   -0.0270   -0.4480 c3        1 MOL      0.285508
     21 C8          7.5780   -0.1930   -1.3370 c         1 MOL      0.320773
     22 O5          7.6230   -0.2900   -2.5330 o         1 MOL     -0.526106
     23 C9          9.5310    1.3590   -0.5320 c3        1 MOL     -0.337582
     24 H8          8.8630    0.1320    1.6740 hn        1 MOL      0.288240
     25 H9          9.6710   -0.6430   -0.9180 h1        1 MOL      0.050369
     26 H10         9.7870    1.6370   -1.5480 hc        1 MOL      0.086148
     27 H11         8.8580    2.0930   -0.0830 hc        1 MOL      0.086148
     28 H12        10.5280    1.3760   -0.0880 hc        1 MOL      0.086148
     29 N3          6.4670   -0.4410   -0.7130 n         1 MOL     -0.335020
     30 C10         5.1170   -0.6430   -1.2770 c3        1 MOL      0.358152
     31 C11         4.7840    0.3300   -2.4410 c         1 MOL      0.240456
     32 O6          4.1770   -0.0720   -3.4340 o         1 MOL     -0.395262
     33 C12         4.8920   -2.1350   -1.7370 c3        1 MOL      0.086100
     34 C13         3.4010   -2.6120   -1.9160 c         1 MOL      0.604587
     35 O7          3.0790   -3.6800   -2.4270 o         1 MOL     -0.755588
     36 O8          2.4350   -1.9360   -1.5150 o         1 MOL     -0.755588
     37 H13         6.5790   -0.6680    0.2650 hn        1 MOL      0.149259
     38 H14         4.4310   -0.5150   -0.4430 h1        1 MOL     -0.026357
     39 H15         5.3660   -2.7400   -0.9600 hc        1 MOL     -0.028508
     40 H16         5.3360   -2.3310   -2.7120 hc        1 MOL     -0.028508
     41 N4          5.2420    1.6130   -2.3550 n         1 MOL     -0.168251
     42 C14         5.2730    2.5690   -3.4550 c3        1 MOL     -0.098597
     43 C15         3.9560    3.1960   -3.8230 c         1 MOL      0.414801
     44 O9          3.7630    3.5960   -4.9600 o         1 MOL     -0.552498
     45 H17         5.6570    1.9170   -1.4900 hn        1 MOL      0.191069
     46 H18         5.6760    2.2060   -4.4050 h1        1 MOL      0.088346
     47 H19         6.0330    3.2700   -3.1290 h1        1 MOL      0.088346
     48 N5          3.0500    3.3140   -2.9270 n         1 MOL     -0.269625
     49 C16         1.7010    3.8990   -3.1140 c3        1 MOL      0.167795
     50 C17         1.3310    4.9970   -2.1440 c         1 MOL      0.422094
     51 O10         1.9080    5.1270   -1.0490 o         1 MOL     -0.506202
     52 C18         0.6980    2.6950   -3.0200 c3        1 MOL     -0.046167
     53 C19        -0.6430    3.1390   -3.6980 c         1 MOL      0.471930
     54 N6         -1.6750    3.3630   -2.9080 n         1 MOL     -0.635728
     55 O11        -0.7520    3.2320   -4.9320 o         1 MOL     -0.556402
     56 H20         3.3530    2.9160   -2.0440 hn        1 MOL      0.152919
     57 H21         1.5350    4.2600   -4.1330 h1        1 MOL      0.006839
     58 H22         0.6280    2.4210   -1.9680 hc        1 MOL      0.077725
     59 H23         1.0370    1.8090   -3.5650 hc        1 MOL      0.077725
     60 H24        -1.5590    3.0230   -1.9660 hn        1 MOL      0.322475
     61 H25        -2.5180    3.5620   -3.4230 hn        1 MOL      0.322475
     62 N7          0.4440    5.8940   -2.6420 n         1 MOL     -0.330955
     63 C20        -0.0040    7.0400   -1.8890 c3        1 MOL     -0.221304
     64 C21        -0.9870    6.7960   -0.8240 c         1 MOL      0.611160
     65 O12        -2.0110    6.2050   -1.1720 o         1 MOL     -0.522090
     66 H26         0.1030    5.7330   -3.5750 hn        1 MOL      0.307203
     67 H27        -0.5030    7.6950   -2.5990 h1        1 MOL      0.102719
     68 H28         0.8150    7.6700   -1.5250 h1        1 MOL      0.102719
     69 N8         -0.8350    7.2330    0.4160 n         1 MOL     -0.411638
     70 C22        -1.9050    7.1510    1.4130 c3        1 MOL     -0.381237
     71 C23        -2.1620    5.7700    2.0510 c         1 MOL      0.550402
     72 O13        -3.0370    5.5820    2.8930 o         1 MOL     -0.558548
     73 C24        -1.7870    8.2720    2.4640 c3        1 MOL      0.554538
     74 C25        -0.6350    8.0320    3.4670 c3        1 MOL     -0.210731
     75 O14        -1.5490    9.5550    1.9110 oh        1 MOL     -0.658875
     76 H29        -0.0120    7.7530    0.7020 hn        1 MOL      0.278396
     77 H30        -2.8250    7.4880    0.9280 h1        1 MOL      0.172871
     78 H31        -2.6790    8.2630    3.0910 h1        1 MOL      0.008508
     79 H32        -0.6930    9.5410    1.4750 ho        1 MOL      0.383152
     80 H33        -1.0490    7.5600    4.3560 hc        1 MOL      0.039942
     81 H34         0.0640    7.3370    3.0210 hc        1 MOL      0.039942
     82 H35        -0.1330    8.9250    3.8390 hc        1 MOL      0.039942
     83 N9         -1.3390    4.7800    1.7140 n         1 MOL     -0.200481
     84 C26        -1.3630    3.4170    2.2630 c3        1 MOL     -0.132944
     85 C27        -1.4500    2.3230    1.0780 c         1 MOL      0.567365
     86 O15        -1.2190    2.6560   -0.1040 o         1 MOL     -0.520528
     87 C28        -0.3070    3.0250    3.2480 c3        1 MOL      0.163014
     88 C29         1.1930    3.1400    2.7440 c3        1 MOL     -0.011524
     89 C30        -0.6120    3.8130    4.5590 c3        1 MOL     -0.247347
     90 C31         2.2190    2.7300    3.7350 c3        1 MOL     -0.098365
     91 H36        -0.5880    4.9270    1.0610 hn        1 MOL      0.199421
     92 H37        -2.2970    3.2940    2.7960 h1        1 MOL      0.096442
     93 H38        -0.4960    1.9720    3.4400 hc        1 MOL      0.015107
     94 H39         1.4070    4.1480    2.4000 hc        1 MOL      0.023109
     95 H40         1.3380    2.5580    1.8280 hc        1 MOL      0.023109
     96 H41         0.2190    3.6910    5.2420 hc        1 MOL      0.057754
     97 H42        -0.7120    4.8890    4.3880 hc        1 MOL      0.057754
     98 H43        -1.4370    3.3360    5.0770 hc        1 MOL      0.057754
     99 H44         2.2120    3.3000    4.6650 hc        1 MOL      0.027602
    100 H45         1.7940    1.7710    4.0390 hc        1 MOL      0.027602
    101 H46         3.2440    2.6610    3.3880 hc        1 MOL      0.027602
    102 N10        -1.9200    1.1250    1.4020 n         1 MOL     -0.577550
    103 C32        -1.8980   -0.0650    0.5800 c3        1 MOL      0.295660
    104 C33        -3.3000   -0.5880    0.1430 c         1 MOL      0.377223
    105 O16        -3.5390   -1.7090   -0.2070 o         1 MOL     -0.440899
    106 C34        -1.0230   -1.1540    1.2000 c3        1 MOL     -0.067473
    107 C35        -0.4990   -2.1870    0.1430 c         1 MOL      0.704363
    108 O17        -0.5030   -1.9140   -1.0790 o         1 MOL     -0.722474
    109 O18         0.0420   -3.2540    0.5220 o         1 MOL     -0.722474
    110 H47        -2.1390    0.9650    2.3750 hn        1 MOL      0.271534
    111 H48        -1.3350    0.2050   -0.3140 h1        1 MOL      0.017143
    112 H49        -1.5690   -1.6890    1.9780 hc        1 MOL      0.029009
    113 H50        -0.1950   -0.6440    1.6760 hc        1 MOL      0.029009
    114 N11        -4.3430    0.2320    0.2990 n         1 MOL     -0.463599
    115 C36        -5.7700   -0.0700    0.0180 c3        1 MOL      0.299879
    116 C37        -6.3470   -1.3150    0.7910 c         1 MOL      0.136337
    117 O19        -6.1220   -1.5000    1.9990 o         1 MOL     -0.436490
    118 C38        -6.6330    1.1860    0.2170 c3        1 MOL     -0.309713
    119 C39        -8.0910    1.0140   -0.1910 ca        1 MOL      0.133893
    120 C40        -8.3360    1.0800   -1.5760 ca        1 MOL     -0.168586
    121 C41        -9.1510    0.8300    0.6640 ca        1 MOL     -0.168586
    122 C42        -9.6030    0.8340   -2.1220 ca        1 MOL     -0.097038
    123 C43       -10.4350    0.5960    0.1260 ca        1 MOL     -0.097038
    124 C44       -10.6950    0.6860   -1.2150 ca        1 MOL     -0.139163
    125 H51        -4.1620    1.1810    0.5810 hn        1 MOL      0.263665
    126 H52        -5.8270   -0.3080   -1.0470 h1        1 MOL      0.030327
    127 H53        -6.1020    2.0090   -0.2520 hc        1 MOL      0.113592
    128 H54        -6.5320    1.3790    1.2920 hc        1 MOL      0.113592
    129 H55        -7.5320    1.2390   -2.2780 ha        1 MOL      0.129972
    130 H56        -8.9670    0.8170    1.7200 ha        1 MOL      0.129972
    131 H57        -9.7410    0.7710   -3.1970 ha        1 MOL      0.108699
    132 H58       -11.2880    0.3870    0.7680 ha        1 MOL      0.108699
    133 H59       -11.6990    0.5670   -1.6100 ha        1 MOL      0.112059
    134 N12        -6.9620   -2.2560    0.0820 n         1 MOL      0.007088
    135 C45        -7.4980   -3.4900    0.7080 c3        1 MOL      0.203023
    136 C46        -6.3580   -4.4260    1.2760 c         1 MOL      0.139883
    137 O20        -6.6340   -5.4950    1.7930 o         1 MOL     -0.510168
    138 C47        -8.3560   -4.1920   -0.3830 c3        1 MOL     -0.213765
    139 C48        -8.5550   -3.0320   -1.3570 c3        1 MOL      0.018792
    140 C49        -7.2320   -2.3110   -1.2970 c3        1 MOL     -0.029203
    141 H60        -8.1990   -3.0850    1.4470 h1        1 MOL      0.036510
    142 H61        -7.7850   -5.0530   -0.7340 hc        1 MOL      0.081570
    143 H62        -9.2870   -4.5190    0.0740 hc        1 MOL      0.081570
    144 H63        -8.7350   -3.3830   -2.3800 hc        1 MOL      0.010878
    145 H64        -9.3980   -2.4160   -1.0440 hc        1 MOL      0.010878
    146 H65        -6.4980   -2.9100   -1.8150 h1        1 MOL      0.039463
    147 H66        -7.3890   -1.3130   -1.7140 h1        1 MOL      0.039463
    148 N13        -5.0880   -4.0530    1.1350 n         1 MOL      0.144616
    149 C50        -3.9130   -4.6310    1.7760 c3        1 MOL     -0.072311
    150 C51        -3.3960   -3.7700    2.9820 c         1 MOL      0.297969
    151 O21        -2.2770   -4.0780    3.4420 o         1 MOL     -0.484326
    152 C52        -2.8550   -4.8130    0.7550 c3        1 MOL      0.088301
    153 C53        -3.2310   -5.7400   -0.4690 c3        1 MOL     -0.377729
    154 C54        -2.0690   -5.7440   -1.4500 c         1 MOL      0.715578
    155 O22        -0.9870   -6.3440   -1.1870 o         1 MOL     -0.737743
    156 O23        -1.9880   -4.9060   -2.4290 o         1 MOL     -0.737743
    157 H67        -4.9260   -3.2920    0.4910 hn        1 MOL      0.100455
    158 H68        -4.2710   -5.5580    2.2170 h1        1 MOL      0.092055
    159 H69        -1.8850   -5.1040    1.1650 hc        1 MOL      0.028088
    160 H70        -2.5510   -3.8410    0.3660 hc        1 MOL      0.028088
    161 H71        -4.1100   -5.2970   -0.9260 hc        1 MOL      0.076894
    162 H72        -3.3900   -6.7910   -0.2340 hc        1 MOL      0.076894
    163 N14        -4.1200   -2.6910    3.4320 n         1 MOL     -0.034642
    164 C55        -3.8930   -1.9120    4.6250 c3        1 MOL     -0.199700
    165 H73        -2.8390   -1.6360    4.6830 h1        1 MOL      0.073996
    166 H74        -4.5030   -1.0090    4.5920 h1        1 MOL      0.073996
    167 H75        -4.1620   -2.5010    5.5010 h1        1 MOL      0.073996
    168 H76        -4.9800   -2.4820    2.9530 hn        1 MOL      0.078176
    169 Ca1         0.6120   -4.1250   -1.9280 Ca        1 MOL      1.823463
    170 O24        -0.7510   -3.1530   -3.9390 oh        1 MOL     -0.850542
    171 H77        -0.5730   -2.3230   -4.3940 ho        1 MOL      0.411352
    172 H78        -1.6150   -3.4250   -4.2580 ho        1 MOL      0.411352
    173 O25         2.2240   -6.0140   -0.6340 oh        1 MOL     -0.850542
    174 H79         2.8910   -6.6750   -0.8230 ho        1 MOL      0.411352
    175 H80         2.2550   -5.9030    0.3160 ho        1 MOL      0.411352
    176 O26         0.9160   -6.0990   -3.6070 oh        1 MOL     -0.850542
    177 H81         1.7920   -6.4060   -3.8360 ho        1 MOL      0.411352
    178 H82         0.4040   -6.8980   -3.5060 ho        1 MOL      0.411352
@<TRIPOS>BOND
     1    1    2 1   
     2    1    4 1   
     3    1    5 1   
     4    1    6 1   
     5    2    3 2   
     6    2    7 1   
     7    7    8 1   
     8    7   15 1   
     9    8    9 1   
    10    8   11 1   
    11    8   16 1   
    12    9   10 2   
    13    9   19 1   
    14   11   12 1   
    15   11   17 1   
    16   11   18 1   
    17   12   13 1   
    18   12   14 1   
    19   19   20 1   
    20   19   24 1   
    21   20   21 1   
    22   20   23 1   
    23   20   25 1   
    24   21   22 2   
    25   21   29 1   
    26   23   26 1   
    27   23   27 1   
    28   23   28 1   
    29   29   30 1   
    30   29   37 1   
    31   30   31 1   
    32   30   33 1   
    33   30   38 1   
    34   31   32 2   
    35   31   41 1   
    36   33   34 1   
    37   33   39 1   
    38   33   40 1   
    39   34   35 1   
    40   34   36 1   
    41   41   42 1   
    42   41   45 1   
    43   42   43 1   
    44   42   46 1   
    45   42   47 1   
    46   43   44 2   
    47   43   48 1   
    48   48   49 1   
    49   48   56 1   
    50   49   50 1   
    51   49   52 1   
    52   49   57 1   
    53   50   51 2   
    54   50   62 1   
    55   52   53 1   
    56   52   58 1   
    57   52   59 1   
    58   53   54 1   
    59   53   55 2   
    60   54   60 1   
    61   54   61 1   
    62   62   63 1   
    63   62   66 1   
    64   63   64 1   
    65   63   67 1   
    66   63   68 1   
    67   64   65 2   
    68   64   69 1   
    69   69   70 1   
    70   69   76 1   
    71   70   71 1   
    72   70   73 1   
    73   70   77 1   
    74   71   72 2   
    75   71   83 1   
    76   73   74 1   
    77   73   75 1   
    78   73   78 1   
    79   74   80 1   
    80   74   81 1   
    81   74   82 1   
    82   75   79 1   
    83   83   84 1   
    84   83   91 1   
    85   84   85 1   
    86   84   87 1   
    87   84   92 1   
    88   85   86 2   
    89   85  102 1   
    90   87   88 1   
    91   87   89 1   
    92   87   93 1   
    93   88   90 1   
    94   88   94 1   
    95   88   95 1   
    96   89   96 1   
    97   89   97 1   
    98   89   98 1   
    99   90   99 1   
   100   90  100 1   
   101   90  101 1   
   102  102  103 1   
   103  102  110 1   
   104  103  104 1   
   105  103  106 1   
   106  103  111 1   
   107  104  105 2   
   108  104  114 1   
   109  106  107 1   
   110  106  112 1   
   111  106  113 1   
   112  107  108 1   
   113  107  109 1   
   114  114  115 1   
   115  114  125 1   
   116  115  116 1   
   117  115  118 1   
   118  115  126 1   
   119  116  117 2   
   120  116  134 1   
   121  118  119 1   
   122  118  127 1   
   123  118  128 1   
   124  119  120 ar  
   125  119  121 ar  
   126  120  122 ar  
   127  120  129 1   
   128  121  123 ar  
   129  121  130 1   
   130  122  124 ar  
   131  122  131 1   
   132  123  124 ar  
   133  123  132 1   
   134  124  133 1   
   135  134  135 1   
   136  134  140 1   
   137  135  136 1   
   138  135  138 1   
   139  135  141 1   
   140  136  137 2   
   141  136  148 1   
   142  138  139 1   
   143  138  142 1   
   144  138  143 1   
   145  139  140 1   
   146  139  144 1   
   147  139  145 1   
   148  140  146 1   
   149  140  147 1   
   150  148  149 1   
   151  148  157 1   
   152  149  150 1   
   153  149  152 1   
   154  149  158 1   
   155  150  151 2   
   156  150  163 1   
   157  152  153 1   
   158  152  159 1   
   159  152  160 1   
   160  153  154 1   
   161  153  161 1   
   162  153  162 1   
   163  154  155 1   
   164  154  156 1   
   165  163  164 1   
   166  163  168 1   
   167  164  165 1   
   168  164  166 1   
   169  164  167 1   
   170  170  171 1   
   171  170  172 1   
   172  173  174 1   
   173  173  175 1   
   174  176  177 1   
   175  176  178 1   
@<TRIPOS>SUBSTRUCTURE
     1 MOL         1 TEMP              0 ****  ****    0 ROOT
