@<TRIPOS>MOLECULE
MOL
  178   175     1     0     0
SMALL
resp


@<TRIPOS>ATOM
      1 C1          4.9240   -2.7680    3.0670 c3        1 MOL     -0.541865
      2 C2          6.0990   -1.8910    2.5830 c         1 MOL      0.694160
      3 O1          5.9520   -0.7680    2.0260 o         1 MOL     -0.599842
      4 H1          4.1460   -2.1320    3.4870 hc        1 MOL      0.154339
      5 H2          4.5180   -3.3280    2.2250 hc        1 MOL      0.154339
      6 H3          5.2770   -3.4620    3.8290 hc        1 MOL      0.154339
      7 N1          7.3660   -2.2790    2.8790 n         1 MOL     -0.616916
      8 C3          8.6250   -1.5940    2.4410 c3        1 MOL      0.257863
      9 C4          8.8050   -1.8590    0.9600 c         1 MOL      0.522420
     10 O2          8.8270   -3.0130    0.5470 o         1 MOL     -0.543995
     11 C5          9.8440   -2.1520    3.1720 c3        1 MOL     -0.198235
     12 C6         11.1080   -1.3650    3.0040 c         1 MOL      0.718989
     13 O3         12.1240   -1.8870    3.5550 o         1 MOL     -0.740761
     14 O4         11.1400   -0.2690    2.4060 o         1 MOL     -0.740761
     15 H4          7.3410   -3.0580    3.5270 hn        1 MOL      0.307225
     16 H5          8.6330   -0.5120    2.6170 h1        1 MOL      0.007350
     17 H6         10.0180   -3.1920    2.8930 hc        1 MOL      0.021118
     18 H7          9.6480   -2.2320    4.2490 hc        1 MOL      0.021118
     19 N2          8.8770   -0.7940    0.1290 n         1 MOL     -0.418926
     20 C7          8.9060   -0.9280   -1.3170 c3        1 MOL      0.249683
     21 C8          7.5790   -1.3240   -1.8830 c         1 MOL      0.324496
     22 O5          7.5390   -2.0680   -2.8750 o         1 MOL     -0.521357
     23 C9          9.4980    0.4340   -1.7870 c3        1 MOL     -0.381558
     24 H8          8.7620    0.1430    0.4740 hn        1 MOL      0.261095
     25 H9          9.6390   -1.7010   -1.5480 h1        1 MOL      0.069245
     26 H10         9.4820    0.4120   -2.8770 hc        1 MOL      0.098760
     27 H11         8.8480    1.2060   -1.3720 hc        1 MOL      0.098760
     28 H12        10.5020    0.6810   -1.4640 hc        1 MOL      0.098760
     29 N3          6.4570   -0.9630   -1.2290 n         1 MOL     -0.318309
     30 C10         5.0960   -1.3340   -1.6210 c3        1 MOL      0.052378
     31 C11         4.6340   -0.6990   -2.9240 c         1 MOL      0.495738
     32 O6          3.7350   -1.2180   -3.5970 o         1 MOL     -0.490580
     33 C12         4.9330   -2.8950   -1.5810 c3        1 MOL      0.058653
     34 C13         3.5020   -3.4260   -1.6790 c         1 MOL      0.540279
     35 O7          2.6670   -2.7800   -1.0070 o         1 MOL     -0.701570
     36 O8          3.2180   -4.4300   -2.4060 o         1 MOL     -0.701570
     37 H13         6.5340   -0.3450   -0.4280 hn        1 MOL      0.224584
     38 H14         4.3860   -0.9010   -0.9060 h1        1 MOL      0.061744
     39 H15         5.2670   -3.3770   -0.6620 hc        1 MOL      0.014382
     40 H16         5.4020   -3.3140   -2.4640 hc        1 MOL      0.014382
     41 N4          5.2160    0.4250   -3.2830 n         1 MOL     -0.255932
     42 C14         4.8810    1.1640   -4.4200 c3        1 MOL     -0.103734
     43 C15         3.9630    2.3520   -3.9710 c         1 MOL      0.652456
     44 O9          4.2550    3.5200   -4.1480 o         1 MOL     -0.623786
     45 H17         5.7710    0.8590   -2.5570 hn        1 MOL      0.208792
     46 H18         4.2860    0.5790   -5.1170 h1        1 MOL      0.066056
     47 H19         5.8020    1.5170   -4.8860 h1        1 MOL      0.066056
     48 N5          2.7870    2.0210   -3.5100 n         1 MOL     -0.514725
     49 C16         1.7830    3.1020   -3.3040 c3        1 MOL      0.077057
     50 C17         2.0820    4.0900   -2.2560 c         1 MOL      0.563041
     51 O10         2.4110    3.7660   -1.0810 o         1 MOL     -0.533559
     52 C18         0.4510    2.3720   -3.0330 c3        1 MOL     -0.369635
     53 C19        -0.7450    3.2370   -2.7290 c         1 MOL      0.585561
     54 N6         -1.2210    3.4930   -1.5520 n         1 MOL     -0.719105
     55 O11        -1.1820    3.8820   -3.6580 o         1 MOL     -0.584567
     56 H20         2.5840    1.1260   -3.0950 hn        1 MOL      0.286018
     57 H21         1.5510    3.5410   -4.2690 h1        1 MOL      0.093327
     58 H22         0.5430    1.7500   -2.1390 hc        1 MOL      0.158594
     59 H23         0.2920    1.7840   -3.9290 hc        1 MOL      0.158594
     60 H24        -0.8340    3.0720   -0.7140 hn        1 MOL      0.357593
     61 H25        -2.1050    3.9620   -1.5150 hn        1 MOL      0.357593
     62 N7          1.9520    5.3660   -2.5790 n         1 MOL     -0.328748
     63 C20         1.9190    6.5050   -1.6200 c3        1 MOL     -0.086134
     64 C21         0.5460    6.5910   -0.8740 c         1 MOL      0.553757
     65 O12        -0.4610    6.4530   -1.5950 o         1 MOL     -0.482057
     66 H26         1.6610    5.5740   -3.5240 hn        1 MOL      0.265167
     67 H27         2.0800    7.4150   -2.1970 h1        1 MOL      0.071486
     68 H28         2.6980    6.4630   -0.8530 h1        1 MOL      0.071486
     69 N8          0.5350    6.9240    0.4140 n         1 MOL     -0.530668
     70 C22        -0.6870    7.2570    1.1460 c3        1 MOL     -0.089860
     71 C23        -1.5450    6.1060    1.6380 c         1 MOL      0.394086
     72 O13        -2.7170    6.2630    1.9080 o         1 MOL     -0.524054
     73 C24        -0.5740    8.5080    2.0550 c3        1 MOL      0.446947
     74 C25        -0.0430    8.2330    3.4770 c3        1 MOL     -0.292054
     75 O14         0.2510    9.4820    1.4150 oh        1 MOL     -0.623844
     76 H29         1.4390    7.0720    0.8470 hn        1 MOL      0.309689
     77 H30        -1.3060    7.6280    0.3300 h1        1 MOL      0.126515
     78 H31        -1.6080    8.8380    2.1640 h1        1 MOL      0.029460
     79 H32         1.1380    9.1400    1.4420 ho        1 MOL      0.376781
     80 H33         0.1090    9.1630    4.0380 hc        1 MOL      0.060726
     81 H34        -0.6890    7.5130    3.9600 hc        1 MOL      0.060726
     82 H35         0.9400    7.7730    3.4670 hc        1 MOL      0.060726
     83 N9         -0.9690    4.8610    1.7500 n         1 MOL     -0.163971
     84 C26        -1.7580    3.6780    2.1600 c3        1 MOL      0.008858
     85 C27        -1.3610    2.4760    1.3820 c         1 MOL      0.362570
     86 O15        -0.2250    2.3930    0.9230 o         1 MOL     -0.457029
     87 C28        -1.6050    3.3750    3.7350 c3        1 MOL     -0.099089
     88 C29        -0.0970    3.1710    4.0830 c3        1 MOL      0.085849
     89 C30        -2.1270    4.4550    4.6360 c3        1 MOL     -0.197328
     90 C31         0.2190    2.8970    5.6080 c3        1 MOL     -0.409240
     91 H36        -0.0050    4.6970    1.4940 hn        1 MOL      0.203497
     92 H37        -2.8000    3.9100    1.9480 h1        1 MOL      0.094662
     93 H38        -2.1370    2.4630    3.9940 hc        1 MOL      0.064560
     94 H39         0.4680    4.0330    3.7400 hc        1 MOL      0.052242
     95 H40         0.3940    2.4210    3.4590 hc        1 MOL      0.052242
     96 H41        -3.1360    4.8620    4.5040 hc        1 MOL      0.062932
     97 H42        -2.2230    4.0750    5.6570 hc        1 MOL      0.062932
     98 H43        -1.4240    5.2640    4.8080 hc        1 MOL      0.062932
     99 H44        -0.5370    2.1590    5.8690 hc        1 MOL      0.106455
    100 H45         1.2260    2.4940    5.6900 hc        1 MOL      0.106455
    101 H46         0.0990    3.7770    6.2390 hc        1 MOL      0.106455
    102 N10        -2.2590    1.5040    1.3010 n         1 MOL     -0.615504
    103 C32        -2.0710    0.2730    0.5460 c3        1 MOL      0.373952
    104 C33        -3.3720   -0.1730   -0.1110 c         1 MOL      0.504497
    105 O16        -3.5730   -1.4110   -0.2230 o         1 MOL     -0.558292
    106 C34        -1.4250   -0.8370    1.4370 c3        1 MOL     -0.059958
    107 C35        -0.8060   -1.9120    0.6570 c         1 MOL      0.792163
    108 O17        -0.3200   -1.7010   -0.4810 o         1 MOL     -0.789027
    109 O18        -0.4000   -2.9510    1.2490 o         1 MOL     -0.789027
    110 H47        -3.0750    1.6360    1.8800 hn        1 MOL      0.323496
    111 H48        -1.3980    0.4490   -0.3030 h1        1 MOL     -0.021042
    112 H49        -2.1680   -1.2180    2.1350 hc        1 MOL      0.027450
    113 H50        -0.6130   -0.3330    1.9500 hc        1 MOL      0.027450
    114 N11        -4.3890    0.6570   -0.3500 n         1 MOL     -0.572764
    115 C36        -5.6920    0.2480   -0.8730 c3        1 MOL      0.412869
    116 C37        -6.4180   -0.6700    0.0790 c         1 MOL      0.239064
    117 O19        -6.5110   -0.2890    1.2760 o         1 MOL     -0.515388
    118 C38        -6.5870    1.4650   -1.1790 c3        1 MOL     -0.275828
    119 C39        -7.9370    1.2070   -1.7900 ca        1 MOL      0.092787
    120 C40        -8.1560    1.5300   -3.1670 ca        1 MOL     -0.162360
    121 C41        -9.0100    0.7250   -1.0580 ca        1 MOL     -0.162360
    122 C42        -9.4140    1.2060   -3.7430 ca        1 MOL     -0.072879
    123 C43       -10.2550    0.4310   -1.5940 ca        1 MOL     -0.072879
    124 C44       -10.4150    0.5120   -3.0020 ca        1 MOL     -0.200799
    125 H51        -4.2790    1.6450   -0.1830 hn        1 MOL      0.262998
    126 H52        -5.5530   -0.3000   -1.8090 h1        1 MOL     -0.001974
    127 H53        -6.0560    2.1370   -1.8490 hc        1 MOL      0.102626
    128 H54        -6.7250    1.9420   -0.2100 hc        1 MOL      0.102626
    129 H55        -7.4010    1.9730   -3.7880 ha        1 MOL      0.126720
    130 H56        -8.8380    0.5850   -0.0030 ha        1 MOL      0.126720
    131 H57        -9.4560    1.5410   -4.7680 ha        1 MOL      0.107778
    132 H58       -10.9910    0.0510   -0.9030 ha        1 MOL      0.107778
    133 H59       -11.3490    0.2110   -3.4420 ha        1 MOL      0.130406
    134 N12        -7.0390   -1.7440   -0.4220 n         1 MOL     -0.109165
    135 C45        -7.8630   -2.5760    0.4920 c3        1 MOL      0.227301
    136 C46        -7.0200   -3.4520    1.4890 c         1 MOL      0.035936
    137 O20        -7.5890   -4.0190    2.4260 o         1 MOL     -0.459010
    138 C47        -8.7960   -3.4460   -0.3680 c3        1 MOL     -0.179744
    139 C48        -8.6350   -2.9040   -1.8020 c3        1 MOL      0.183145
    140 C49        -7.3250   -2.1210   -1.8480 c3        1 MOL     -0.158117
    141 H60        -8.4650   -1.9120    1.1040 h1        1 MOL      0.063975
    142 H61        -8.4850   -4.4900   -0.4270 hc        1 MOL      0.061895
    143 H62        -9.8530   -3.3240   -0.1400 hc        1 MOL      0.061895
    144 H63        -8.7570   -3.7070   -2.5240 hc        1 MOL     -0.019731
    145 H64        -9.4570   -2.2140   -2.0080 hc        1 MOL     -0.019731
    146 H65        -6.5840   -2.7640   -2.3290 h1        1 MOL      0.065817
    147 H66        -7.4520   -1.2370   -2.4820 h1        1 MOL      0.065817
    148 N13        -5.7060   -3.5900    1.3190 n         1 MOL      0.114596
    149 C50        -4.8380   -4.3670    2.2570 c3        1 MOL     -0.274124
    150 C51        -4.7250   -3.6720    3.6040 c         1 MOL      0.461220
    151 O21        -4.6540   -4.3860    4.6110 o         1 MOL     -0.543043
    152 C52        -3.4120   -4.6710    1.6570 c3        1 MOL      0.131720
    153 C53        -3.4930   -5.4580    0.3760 c3        1 MOL     -0.028604
    154 C54        -2.1210   -5.6110   -0.2400 c         1 MOL      0.632094
    155 O22        -1.2640   -6.1910    0.4700 o         1 MOL     -0.732484
    156 O23        -1.8820   -5.0110   -1.2900 o         1 MOL     -0.732484
    157 H67        -5.2060   -3.3080    0.4890 hn        1 MOL      0.178736
    158 H68        -5.3370   -5.3200    2.4350 h1        1 MOL      0.142189
    159 H69        -2.7320   -5.1900    2.3210 hc        1 MOL      0.014621
    160 H70        -2.9720   -3.7190    1.3400 hc        1 MOL      0.014621
    161 H71        -4.2750   -5.0210   -0.2400 hc        1 MOL     -0.031126
    162 H72        -3.9070   -6.4300    0.6090 hc        1 MOL     -0.031126
    163 N14        -4.8260   -2.3370    3.6680 n         1 MOL     -0.105428
    164 C55        -4.6550   -1.5400    4.9020 c3        1 MOL     -0.427941
    165 H73        -5.0600   -2.0920    5.7500 h1        1 MOL      0.146508
    166 H74        -3.5940   -1.3480    5.0660 h1        1 MOL      0.146508
    167 H75        -5.1850   -0.5930    4.8000 h1        1 MOL      0.146508
    168 H76        -5.0450   -1.9000    2.7850 hn        1 MOL      0.194323
    169 Ca1         0.4280   -4.2120   -1.0390 Ca        1 MOL      1.744562
    170 O24        -0.7700   -3.1430   -3.6760 oh        1 MOL     -0.784348
    171 H77        -0.8260   -3.4640   -4.5780 ho        1 MOL      0.386309
    172 H78        -1.3980   -2.4250   -3.6340 ho        1 MOL      0.386309
    173 O25         0.5070   -6.2220   -2.5750 oh        1 MOL     -0.784348
    174 H79         1.3070   -6.5800   -2.9670 ho        1 MOL      0.386309
    175 H80         0.0600   -6.9800   -2.2080 ho        1 MOL      0.386309
    176 O26         1.7060   -5.9450    0.3370 oh        1 MOL     -0.784348
    177 H81         1.1600   -6.7280    0.4300 ho        1 MOL      0.386309
    178 H82         2.5060   -6.1640    0.8000 ho        1 MOL      0.386309
@<TRIPOS>BOND
     1    1    2 1   
     2    1    4 1   
     3    1    5 1   
     4    1    6 1   
     5    2    3 2   
     6    2    7 1   
     7    7    8 1   
     8    7   15 1   
     9    8    9 1   
    10    8   11 1   
    11    8   16 1   
    12    9   10 2   
    13    9   19 1   
    14   11   12 1   
    15   11   17 1   
    16   11   18 1   
    17   12   13 1   
    18   12   14 1   
    19   19   20 1   
    20   19   24 1   
    21   20   21 1   
    22   20   23 1   
    23   20   25 1   
    24   21   22 2   
    25   21   29 1   
    26   23   26 1   
    27   23   27 1   
    28   23   28 1   
    29   29   30 1   
    30   29   37 1   
    31   30   31 1   
    32   30   33 1   
    33   30   38 1   
    34   31   32 2   
    35   31   41 1   
    36   33   34 1   
    37   33   39 1   
    38   33   40 1   
    39   34   35 1   
    40   34   36 1   
    41   41   42 1   
    42   41   45 1   
    43   42   43 1   
    44   42   46 1   
    45   42   47 1   
    46   43   44 2   
    47   43   48 1   
    48   48   49 1   
    49   48   56 1   
    50   49   50 1   
    51   49   52 1   
    52   49   57 1   
    53   50   51 2   
    54   50   62 1   
    55   52   53 1   
    56   52   58 1   
    57   52   59 1   
    58   53   54 1   
    59   53   55 2   
    60   54   60 1   
    61   54   61 1   
    62   62   63 1   
    63   62   66 1   
    64   63   64 1   
    65   63   67 1   
    66   63   68 1   
    67   64   65 2   
    68   64   69 1   
    69   69   70 1   
    70   69   76 1   
    71   70   71 1   
    72   70   73 1   
    73   70   77 1   
    74   71   72 2   
    75   71   83 1   
    76   73   74 1   
    77   73   75 1   
    78   73   78 1   
    79   74   80 1   
    80   74   81 1   
    81   74   82 1   
    82   75   79 1   
    83   83   84 1   
    84   83   91 1   
    85   84   85 1   
    86   84   87 1   
    87   84   92 1   
    88   85   86 2   
    89   85  102 1   
    90   87   88 1   
    91   87   89 1   
    92   87   93 1   
    93   88   90 1   
    94   88   94 1   
    95   88   95 1   
    96   89   96 1   
    97   89   97 1   
    98   89   98 1   
    99   90   99 1   
   100   90  100 1   
   101   90  101 1   
   102  102  103 1   
   103  102  110 1   
   104  103  104 1   
   105  103  106 1   
   106  103  111 1   
   107  104  105 2   
   108  104  114 1   
   109  106  107 1   
   110  106  112 1   
   111  106  113 1   
   112  107  108 1   
   113  107  109 1   
   114  114  115 1   
   115  114  125 1   
   116  115  116 1   
   117  115  118 1   
   118  115  126 1   
   119  116  117 2   
   120  116  134 1   
   121  118  119 1   
   122  118  127 1   
   123  118  128 1   
   124  119  120 ar  
   125  119  121 ar  
   126  120  122 ar  
   127  120  129 1   
   128  121  123 ar  
   129  121  130 1   
   130  122  124 ar  
   131  122  131 1   
   132  123  124 ar  
   133  123  132 1   
   134  124  133 1   
   135  134  135 1   
   136  134  140 1   
   137  135  136 1   
   138  135  138 1   
   139  135  141 1   
   140  136  137 2   
   141  136  148 1   
   142  138  139 1   
   143  138  142 1   
   144  138  143 1   
   145  139  140 1   
   146  139  144 1   
   147  139  145 1   
   148  140  146 1   
   149  140  147 1   
   150  148  149 1   
   151  148  157 1   
   152  149  150 1   
   153  149  152 1   
   154  149  158 1   
   155  150  151 2   
   156  150  163 1   
   157  152  153 1   
   158  152  159 1   
   159  152  160 1   
   160  153  154 1   
   161  153  161 1   
   162  153  162 1   
   163  154  155 1   
   164  154  156 1   
   165  163  164 1   
   166  163  168 1   
   167  164  165 1   
   168  164  166 1   
   169  164  167 1   
   170  170  171 1   
   171  170  172 1   
   172  173  174 1   
   173  173  175 1   
   174  176  177 1   
   175  176  178 1   
@<TRIPOS>SUBSTRUCTURE
     1 MOL         1 TEMP              0 ****  ****    0 ROOT
