@<TRIPOS>MOLECULE
MOL
  175   173     1     0     0
SMALL
resp


@<TRIPOS>ATOM
      1 C1         -6.3850    7.6380    2.6920 c3        1 MOL     -0.408672
      2 C2         -7.1810    7.1290    1.4200 c         1 MOL      0.681157
      3 O1         -7.3560    7.8800    0.4850 o         1 MOL     -0.565851
      4 H1         -5.9310    6.7880    3.2010 hc        1 MOL      0.096613
      5 H2         -5.6050    8.3320    2.3800 hc        1 MOL      0.096613
      6 H3         -7.0710    8.1440    3.3720 hc        1 MOL      0.096613
      7 N1         -7.8230    5.9390    1.5120 n         1 MOL     -0.536136
      8 C3         -8.8130    5.3760    0.5270 c3        1 MOL      0.221212
      9 C4         -8.2880    4.1960   -0.2440 c         1 MOL      0.554724
     10 O2         -8.9910    3.6220   -1.0320 o         1 MOL     -0.485058
     11 C5        -10.0820    5.0280    1.3030 c3        1 MOL     -0.165176
     12 C6        -11.3440    4.7260    0.4230 c         1 MOL      0.652852
     13 O3        -11.9840    3.6900    0.6770 o         1 MOL     -0.712032
     14 O4        -11.5680    5.5230   -0.5440 o         1 MOL     -0.712032
     15 H4         -7.4880    5.3870    2.2840 hn        1 MOL      0.265496
     16 H5         -9.0570    6.0900   -0.2590 h1        1 MOL      0.040978
     17 H6        -10.3630    5.7550    2.0600 hc        1 MOL      0.004496
     18 H7         -9.9680    4.1350    1.9220 hc        1 MOL      0.004496
     19 N2         -7.0050    3.8750   -0.0690 n         1 MOL     -0.643867
     20 C7         -6.2850    2.8430   -0.8460 c3        1 MOL      0.472229
     21 C8         -5.0690    2.2000   -0.1660 c         1 MOL      0.368976
     22 O5         -4.4350    2.9050    0.5930 o         1 MOL     -0.503921
     23 C9         -6.0300    3.4690   -2.2190 c3        1 MOL     -0.234781
     24 H8         -6.5140    4.5160    0.5340 hn        1 MOL      0.247194
     25 H9         -7.0740    2.1170   -1.0390 h1        1 MOL     -0.046907
     26 H10        -6.9890    3.6410   -2.7170 hc        1 MOL      0.059528
     27 H11        -5.5130    4.4250   -2.1310 hc        1 MOL      0.059528
     28 H12        -5.4690    2.7960   -2.8680 hc        1 MOL      0.059528
     29 N3         -4.6020    0.9390   -0.4710 n         1 MOL     -0.395785
     30 C10        -5.1600    0.1480   -1.5320 c3        1 MOL     -0.080657
     31 C11        -5.4830   -1.3440   -1.0970 c         1 MOL      0.507963
     32 O6         -4.8360   -1.7920   -0.1490 o         1 MOL     -0.539973
     33 C12        -4.0770   -0.0550   -2.6320 c3        1 MOL     -0.005423
     34 C13        -2.6900   -0.5690   -2.1050 c         1 MOL      0.828734
     35 O7         -2.2050   -0.1280   -1.0570 o         1 MOL     -0.785627
     36 O8         -2.0680   -1.4300   -2.7640 o         1 MOL     -0.785627
     37 H13        -3.7720    0.6660    0.0420 hn        1 MOL      0.341588
     38 H14        -6.1320    0.4230   -1.9520 h1        1 MOL      0.055296
     39 H15        -3.9170    0.8410   -3.2410 hc        1 MOL     -0.014438
     40 H16        -4.3240   -0.8250   -3.3520 hc        1 MOL     -0.014438
     41 N4         -6.4040   -2.0080   -1.7560 n         1 MOL     -0.337237
     42 C14        -6.7860   -3.3060   -1.3690 c3        1 MOL      0.001984
     43 C15        -6.5100   -4.3580   -2.4090 c         1 MOL      0.561648
     44 O9         -7.2870   -4.5070   -3.3250 o         1 MOL     -0.540620
     45 H17        -6.7730   -1.6030   -2.6150 hn        1 MOL      0.298793
     46 H18        -7.8640   -3.2860   -1.2900 h1        1 MOL      0.062644
     47 H19        -6.3770   -3.6100   -0.4070 h1        1 MOL      0.062644
     48 N5         -5.3700   -5.0750   -2.2930 n         1 MOL     -0.590898
     49 C16        -4.2000   -4.9000   -1.4620 c3        1 MOL      0.278046
     50 C17        -4.2360   -5.6100   -0.1180 c         1 MOL      0.364913
     51 O10        -4.8480   -6.7210    0.1380 o         1 MOL     -0.547254
     52 C18        -3.0110   -5.4630   -2.2680 c3        1 MOL     -0.417960
     53 C19        -1.6560   -5.0770   -1.6340 c         1 MOL      0.759426
     54 N6         -0.8440   -6.0910   -1.3280 n         1 MOL     -0.802218
     55 O11        -1.3290   -3.9620   -1.2800 o         1 MOL     -0.622970
     56 H20        -5.3000   -5.8620   -2.9250 hn        1 MOL      0.315575
     57 H21        -4.1560   -3.8270   -1.3190 h1        1 MOL      0.089433
     58 H22        -2.8870   -4.9410   -3.2150 hc        1 MOL      0.135456
     59 H23        -3.0670   -6.5520   -2.3570 hc        1 MOL      0.135456
     60 H24        -1.0200   -7.0190   -1.6770 hn        1 MOL      0.362187
     61 H25        -0.0800   -5.9270   -0.6870 hn        1 MOL      0.362187
     62 N7         -3.5020   -5.0490    0.8420 n         1 MOL     -0.180457
     63 C20        -3.2580   -5.5380    2.2030 c3        1 MOL     -0.110493
     64 C21        -1.8090   -5.5630    2.7080 c         1 MOL      0.379319
     65 O12        -1.5510   -5.7300    3.8990 o         1 MOL     -0.508976
     66 H26        -3.0020   -4.2230    0.5650 hn        1 MOL      0.181349
     67 H27        -3.6670   -6.5290    2.4050 h1        1 MOL      0.115350
     68 H28        -3.8600   -4.8360    2.7920 h1        1 MOL      0.115350
     69 N8         -0.8050   -5.2420    1.8030 n         1 MOL      0.006053
     70 C22         0.6150   -5.1630    2.1650 c3        1 MOL     -0.001377
     71 C23         1.2950   -3.8480    2.0060 c         1 MOL      0.464544
     72 O13         0.7740   -2.9770    1.2640 o         1 MOL     -0.520122
     73 C24         1.4830   -6.2480    1.5700 c3        1 MOL      0.349397
     74 C25         0.9850   -7.6400    1.8250 c3        1 MOL     -0.570423
     75 O14         1.5620   -6.1160    0.1870 oh        1 MOL     -0.649444
     76 H29        -1.0370   -5.2710    0.8150 hn        1 MOL      0.029062
     77 H30         0.6580   -5.3400    3.2410 h1        1 MOL      0.043682
     78 H31         2.5270   -6.1900    1.8920 h1        1 MOL      0.008109
     79 H32         2.3290   -6.5110   -0.2390 ho        1 MOL      0.448387
     80 H33         1.6340   -8.4110    1.4000 hc        1 MOL      0.146345
     81 H34         0.9630   -7.7740    2.9070 hc        1 MOL      0.146345
     82 H35         0.0800   -7.7650    1.2270 hc        1 MOL      0.146345
     83 N9          2.4930   -3.7660    2.7260 n         1 MOL     -0.396837
     84 C26         3.4600   -2.6600    2.6460 c3        1 MOL     -0.052569
     85 C27         4.4640   -2.9590    1.5550 c         1 MOL      0.596699
     86 O15         5.2950   -3.8310    1.7340 o         1 MOL     -0.596366
     87 C28         4.1740   -2.3150    4.0030 c3        1 MOL      0.224482
     88 C29         5.2060   -1.1380    3.8620 c3        1 MOL     -0.155573
     89 C30         3.1450   -2.0720    5.0840 c3        1 MOL     -0.325302
     90 C31         4.6880    0.1570    3.3020 c3        1 MOL     -0.006741
     91 H36         2.7720   -4.5420    3.3100 hn        1 MOL      0.275293
     92 H37         2.9140   -1.7650    2.3280 h1        1 MOL      0.110085
     93 H38         4.7470   -3.1960    4.3020 hc        1 MOL     -0.026738
     94 H39         6.0610   -1.4280    3.2440 hc        1 MOL      0.023946
     95 H40         5.6310   -0.9470    4.8400 hc        1 MOL      0.023946
     96 H41         2.3660   -1.4460    4.6670 hc        1 MOL      0.081352
     97 H42         2.7790   -3.0550    5.3970 hc        1 MOL      0.081352
     98 H43         3.5660   -1.6470    5.9960 hc        1 MOL      0.081352
     99 H44         4.4070   -0.1700    2.2960 hc        1 MOL      0.010884
    100 H45         3.8430    0.5080    3.8870 hc        1 MOL      0.010884
    101 H46         5.5310    0.8330    3.2100 hc        1 MOL      0.010884
    102 N10         4.3540   -2.2320    0.4520 n         1 MOL     -0.343083
    103 C32         5.1080   -2.5190   -0.7680 c3        1 MOL      0.042797
    104 C33         5.9150   -1.2880   -1.4010 c         1 MOL      0.594029
    105 O16         6.5580   -1.4570   -2.4130 o         1 MOL     -0.567533
    106 C34         4.1920   -3.1490   -1.8790 c3        1 MOL      0.065749
    107 C35         2.9720   -2.3690   -2.2720 c         1 MOL      0.633302
    108 O17         1.8300   -2.8260   -2.0870 o         1 MOL     -0.705601
    109 O18         3.1120   -1.2360   -2.8170 o         1 MOL     -0.705601
    110 H47         3.7840   -1.4010    0.3920 hn        1 MOL      0.149228
    111 H48         5.8940   -3.2590   -0.5840 h1        1 MOL      0.052889
    112 H49         3.7600   -4.0560   -1.4360 hc        1 MOL     -0.028587
    113 H50         4.7860   -3.5160   -2.7250 hc        1 MOL     -0.028587
    114 N11         6.0690   -0.2240   -0.6620 n         1 MOL     -0.598354
    115 C36         6.6690    0.9890   -1.1790 c3        1 MOL      0.337283
    116 C37         6.1740    2.3030   -0.4550 c         1 MOL      0.363261
    117 O19         6.0020    2.2930    0.7720 o         1 MOL     -0.534319
    118 C38         8.2080    0.9550   -1.0470 c3        1 MOL     -0.255415
    119 C39         9.0320    2.1560   -1.6550 ca        1 MOL      0.087591
    120 C40         9.5930    3.1840   -0.8490 ca        1 MOL     -0.171365
    121 C41         9.0840    2.3420   -3.0440 ca        1 MOL     -0.171365
    122 C42        10.1550    4.3680   -1.3790 ca        1 MOL     -0.104330
    123 C43         9.6690    3.5010   -3.5720 ca        1 MOL     -0.104330
    124 C44        10.2240    4.4830   -2.7720 ca        1 MOL     -0.111018
    125 H51         5.5410   -0.1420    0.2030 hn        1 MOL      0.354024
    126 H52         6.4010    1.0310   -2.2330 h1        1 MOL      0.048833
    127 H53         8.5240    0.0300   -1.5300 hc        1 MOL      0.093692
    128 H54         8.4130    0.8640    0.0210 hc        1 MOL      0.093692
    129 H55         9.5170    3.0690    0.2210 ha        1 MOL      0.130717
    130 H56         8.6010    1.6930   -3.7550 ha        1 MOL      0.130717
    131 H57        10.6020    5.1350   -0.7640 ha        1 MOL      0.105393
    132 H58         9.7720    3.5550   -4.6420 ha        1 MOL      0.105393
    133 H59        10.6880    5.3390   -3.2460 ha        1 MOL      0.100125
    134 N12         5.8910    3.4360   -1.1550 n         1 MOL     -0.068598
    135 C45         5.6950    4.7910   -0.6100 c3        1 MOL     -0.072270
    136 C46         4.5350    4.9890    0.3390 c         1 MOL      0.393267
    137 O20         4.3760    6.0070    0.9570 o         1 MOL     -0.516597
    138 C47         5.5620    5.7610   -1.8450 c3        1 MOL     -0.075983
    139 C48         6.3080    5.0000   -2.9060 c3        1 MOL      0.001595
    140 C49         5.9500    3.5830   -2.6100 c3        1 MOL     -0.106661
    141 H60         6.6070    5.0510   -0.0790 h1        1 MOL      0.094319
    142 H61         4.5510    5.7830   -2.2410 hc        1 MOL      0.073762
    143 H62         5.8500    6.8070   -1.7210 hc        1 MOL      0.073762
    144 H63         5.9360    5.3310   -3.8680 hc        1 MOL      0.014862
    145 H64         7.3960    5.1540   -2.8990 hc        1 MOL      0.014862
    146 H65         4.9340    3.3520   -2.9490 h1        1 MOL      0.079839
    147 H66         6.6370    2.9100   -3.1330 h1        1 MOL      0.079839
    148 N13         3.6200    3.9960    0.5400 n         1 MOL     -0.223781
    149 C50         2.4220    4.0750    1.3120 c3        1 MOL     -0.145977
    150 C51         2.6560    4.2050    2.8590 c         1 MOL      0.567790
    151 O21         1.6480    4.6820    3.4670 o         1 MOL     -0.543925
    152 C52         1.5360    2.8850    0.9520 c3        1 MOL     -0.072942
    153 C53         2.1850    1.5570    1.3750 c3        1 MOL     -0.091577
    154 C54         1.4730    0.4460    0.5750 c         1 MOL      0.628617
    155 O22         2.1130   -0.1440   -0.3530 o         1 MOL     -0.670421
    156 O23         0.3580    0.0280    0.9460 o         1 MOL     -0.670421
    157 H67         3.8150    3.0770    0.1620 hn        1 MOL      0.167506
    158 H68         1.9440    5.0350    1.1130 h1        1 MOL      0.130462
    159 H69         1.3060    2.8510   -0.1140 hc        1 MOL      0.069194
    160 H70         0.5730    3.0160    1.4260 hc        1 MOL      0.069194
    161 H71         1.8220    1.4270    2.4030 hc        1 MOL      0.032287
    162 H72         3.2600    1.5070    1.2370 hc        1 MOL      0.032287
    163 N14         3.8640    3.9360    3.3990 n         1 MOL     -0.342098
    164 C55         4.0970    4.2980    4.8140 c3        1 MOL     -0.087867
    165 H73         4.7180    3.5360    5.2860 h1        1 MOL      0.061564
    166 H74         4.6040    5.2610    4.8650 h1        1 MOL      0.061564
    167 H75         3.1410    4.3610    5.3350 h1        1 MOL      0.061564
    168 H76         4.6900    3.6520    2.8910 hn        1 MOL      0.296030
    169 Ca1        -0.1090   -1.6570   -0.8550 Ca        1 MOL      1.695516
    170 O24         0.6690   -0.1110   -3.0930 oh        1 MOL     -0.840802
    171 H77         0.4400   -0.4050   -3.9720 ho        1 MOL      0.397947
    172 H78         1.5860   -0.3890   -2.9760 ho        1 MOL      0.397947
    173 O25        -2.5500   -2.2500    0.8510 oh        1 MOL     -0.840802
    174 H79        -2.3120   -1.4670    1.3330 ho        1 MOL      0.397947
    175 H80        -3.4530   -2.0910    0.5590 ho        1 MOL      0.397947
@<TRIPOS>BOND
     1    1    2 1   
     2    1    4 1   
     3    1    5 1   
     4    1    6 1   
     5    2    3 2   
     6    2    7 1   
     7    7    8 1   
     8    7   15 1   
     9    8    9 1   
    10    8   11 1   
    11    8   16 1   
    12    9   10 2   
    13    9   19 1   
    14   11   12 1   
    15   11   17 1   
    16   11   18 1   
    17   12   13 1   
    18   12   14 1   
    19   19   20 1   
    20   19   24 1   
    21   20   21 1   
    22   20   23 1   
    23   20   25 1   
    24   21   22 2   
    25   21   29 1   
    26   23   26 1   
    27   23   27 1   
    28   23   28 1   
    29   29   30 1   
    30   29   37 1   
    31   30   31 1   
    32   30   33 1   
    33   30   38 1   
    34   31   32 2   
    35   31   41 1   
    36   33   34 1   
    37   33   39 1   
    38   33   40 1   
    39   34   35 1   
    40   34   36 1   
    41   41   42 1   
    42   41   45 1   
    43   42   43 1   
    44   42   46 1   
    45   42   47 1   
    46   43   44 2   
    47   43   48 1   
    48   48   49 1   
    49   48   56 1   
    50   49   50 1   
    51   49   52 1   
    52   49   57 1   
    53   50   51 2   
    54   50   62 1   
    55   52   53 1   
    56   52   58 1   
    57   52   59 1   
    58   53   54 1   
    59   53   55 2   
    60   54   60 1   
    61   54   61 1   
    62   62   63 1   
    63   62   66 1   
    64   63   64 1   
    65   63   67 1   
    66   63   68 1   
    67   64   65 2   
    68   64   69 1   
    69   69   70 1   
    70   69   76 1   
    71   70   71 1   
    72   70   73 1   
    73   70   77 1   
    74   71   72 2   
    75   71   83 1   
    76   73   74 1   
    77   73   75 1   
    78   73   78 1   
    79   74   80 1   
    80   74   81 1   
    81   74   82 1   
    82   75   79 1   
    83   83   84 1   
    84   83   91 1   
    85   84   85 1   
    86   84   87 1   
    87   84   92 1   
    88   85   86 2   
    89   85  102 1   
    90   87   88 1   
    91   87   89 1   
    92   87   93 1   
    93   88   90 1   
    94   88   94 1   
    95   88   95 1   
    96   89   96 1   
    97   89   97 1   
    98   89   98 1   
    99   90   99 1   
   100   90  100 1   
   101   90  101 1   
   102  102  103 1   
   103  102  110 1   
   104  103  104 1   
   105  103  106 1   
   106  103  111 1   
   107  104  105 2   
   108  104  114 1   
   109  106  107 1   
   110  106  112 1   
   111  106  113 1   
   112  107  108 1   
   113  107  109 1   
   114  114  115 1   
   115  114  125 1   
   116  115  116 1   
   117  115  118 1   
   118  115  126 1   
   119  116  117 2   
   120  116  134 1   
   121  118  119 1   
   122  118  127 1   
   123  118  128 1   
   124  119  120 ar  
   125  119  121 ar  
   126  120  122 ar  
   127  120  129 1   
   128  121  123 ar  
   129  121  130 1   
   130  122  124 ar  
   131  122  131 1   
   132  123  124 ar  
   133  123  132 1   
   134  124  133 1   
   135  134  135 1   
   136  134  140 1   
   137  135  136 1   
   138  135  138 1   
   139  135  141 1   
   140  136  137 2   
   141  136  148 1   
   142  138  139 1   
   143  138  142 1   
   144  138  143 1   
   145  139  140 1   
   146  139  144 1   
   147  139  145 1   
   148  140  146 1   
   149  140  147 1   
   150  148  149 1   
   151  148  157 1   
   152  149  150 1   
   153  149  152 1   
   154  149  158 1   
   155  150  151 2   
   156  150  163 1   
   157  152  153 1   
   158  152  159 1   
   159  152  160 1   
   160  153  154 1   
   161  153  161 1   
   162  153  162 1   
   163  154  155 1   
   164  154  156 1   
   165  163  164 1   
   166  163  168 1   
   167  164  165 1   
   168  164  166 1   
   169  164  167 1   
   170  170  171 1   
   171  170  172 1   
   172  173  174 1   
   173  173  175 1   
@<TRIPOS>SUBSTRUCTURE
     1 MOL         1 TEMP              0 ****  ****    0 ROOT
