@<TRIPOS>MOLECULE
MOL
  178   175     1     0     0
SMALL
resp


@<TRIPOS>ATOM
      1 C1          4.7960   -2.0600    2.5420 c3        1 MOL     -0.372342
      2 C2          6.0490   -1.2480    2.3940 c         1 MOL      0.587864
      3 O1          6.0140   -0.0660    1.9170 o         1 MOL     -0.595930
      4 H1          4.6190   -2.2640    3.5970 hc        1 MOL      0.108416
      5 H2          3.9520   -1.5040    2.1330 hc        1 MOL      0.108416
      6 H3          4.9070   -3.0010    2.0040 hc        1 MOL      0.108416
      7 N1          7.1790   -1.8350    2.6760 n         1 MOL     -0.461220
      8 C3          8.5920   -1.3210    2.4880 c3        1 MOL      0.164499
      9 C4          8.8730   -1.2450    0.8710 c         1 MOL      0.673693
     10 O2          8.8060   -2.2550    0.2420 o         1 MOL     -0.573685
     11 C5          9.5180   -2.0960    3.4850 c3        1 MOL     -0.392191
     12 C6         11.0470   -1.9620    3.2530 c         1 MOL      0.752918
     13 O3         11.7670   -2.5440    4.0770 o         1 MOL     -0.726296
     14 O4         11.5490   -1.4000    2.2610 o         1 MOL     -0.726296
     15 H4          7.2170   -2.6980    3.2060 hn        1 MOL      0.267025
     16 H5          8.6570   -0.2670    2.7680 h1        1 MOL      0.019032
     17 H6          9.3970   -3.1710    3.3550 hc        1 MOL      0.085811
     18 H7          9.3550   -1.8870    4.5430 hc        1 MOL      0.085811
     19 N2          8.9990   -0.0270    0.3160 n         1 MOL     -0.613747
     20 C7          9.1520    0.1710   -1.0850 c3        1 MOL      0.433736
     21 C8          7.8210   -0.0060   -1.8770 c         1 MOL      0.127155
     22 O5          7.7250    0.4160   -3.0660 o         1 MOL     -0.485613
     23 C9          9.7960    1.5520   -1.2530 c3        1 MOL     -0.359909
     24 H8          9.0860    0.7020    1.0090 hn        1 MOL      0.284698
     25 H9          9.8950   -0.5270   -1.4810 h1        1 MOL      0.044950
     26 H10         9.8660    1.7540   -2.3290 hc        1 MOL      0.088173
     27 H11         9.0450    2.2310   -0.8460 hc        1 MOL      0.088173
     28 H12        10.8010    1.4930   -0.8500 hc        1 MOL      0.088173
     29 N3          6.7750   -0.3710   -1.1340 n         1 MOL     -0.083196
     30 C10         5.3840   -0.5880   -1.5080 c3        1 MOL      0.374399
     31 C11         4.8780    0.6260   -2.4030 c         1 MOL      0.243832
     32 O6          4.4620    0.4730   -3.5550 o         1 MOL     -0.461560
     33 C12         5.1950   -1.9440   -2.1980 c3        1 MOL     -0.220965
     34 C13         3.8010   -2.3810   -2.1990 c         1 MOL      0.809623
     35 O7          3.4290   -3.0610   -3.2360 o         1 MOL     -0.808046
     36 O8          3.0140   -2.2080   -1.2800 o         1 MOL     -0.808046
     37 H13         6.9520   -0.4350   -0.1390 hn        1 MOL      0.079817
     38 H14         4.7690   -0.5160   -0.6140 h1        1 MOL     -0.031568
     39 H15         5.8020   -2.6680   -1.6480 hc        1 MOL      0.045505
     40 H16         5.5750   -1.9030   -3.2140 hc        1 MOL      0.045505
     41 N4          5.0890    1.8550   -1.8840 n         1 MOL     -0.085843
     42 C14         5.1800    3.0900   -2.7260 c3        1 MOL     -0.305906
     43 C15         3.8180    3.6120   -3.2180 c         1 MOL      0.605404
     44 O9          3.8290    4.3590   -4.2150 o         1 MOL     -0.580612
     45 H17         5.2530    1.8590   -0.8920 hn        1 MOL      0.172640
     46 H18         5.7220    2.7600   -3.6140 h1        1 MOL      0.146895
     47 H19         5.7670    3.9220   -2.3290 h1        1 MOL      0.146895
     48 N5          2.6630    3.3370   -2.5480 n         1 MOL     -0.348560
     49 C16         1.3160    3.7140   -2.9060 c3        1 MOL      0.073061
     50 C17         0.7450    4.8010   -2.0320 c         1 MOL      0.291487
     51 O10         0.8400    4.8500   -0.7960 o         1 MOL     -0.473374
     52 C18         0.4700    2.4640   -2.8550 c3        1 MOL     -0.244364
     53 C19        -0.9680    2.6850   -3.0630 c         1 MOL      0.564191
     54 N6         -1.7320    2.7090   -2.0130 n         1 MOL     -0.638171
     55 O11        -1.4350    2.8290   -4.1980 o         1 MOL     -0.602816
     56 H20         2.6700    2.7140   -1.7440 hn        1 MOL      0.190666
     57 H21         1.3520    4.0000   -3.9650 h1        1 MOL      0.086875
     58 H22         0.5900    2.0210   -1.8620 hc        1 MOL      0.135263
     59 H23         0.8960    1.8660   -3.6500 hc        1 MOL      0.135263
     60 H24        -1.3150    2.6120   -1.0970 hn        1 MOL      0.326020
     61 H25        -2.7070    2.7560   -2.2610 hn        1 MOL      0.326020
     62 N7         -0.0520    5.6900   -2.6250 n         1 MOL     -0.126181
     63 C20        -0.7180    6.8450   -1.8640 c3        1 MOL     -0.385750
     64 C21        -1.7700    6.3560   -0.8280 c         1 MOL      0.590217
     65 O12        -2.5620    5.4710   -1.1040 o         1 MOL     -0.488889
     66 H26         0.0150    5.6960   -3.6320 hn        1 MOL      0.221404
     67 H27        -1.1220    7.4520   -2.6670 h1        1 MOL      0.147287
     68 H28         0.1190    7.3520   -1.4050 h1        1 MOL      0.147287
     69 N8         -1.7680    6.9070    0.3310 n         1 MOL     -0.305210
     70 C22        -2.9150    6.7370    1.2470 c3        1 MOL     -0.280962
     71 C23        -2.8370    5.3280    1.8650 c         1 MOL      0.443088
     72 O13        -3.8540    4.7360    2.2450 o         1 MOL     -0.573793
     73 C24        -2.8300    7.8190    2.2850 c3        1 MOL      0.401669
     74 C25        -1.8980    7.6870    3.4730 c3        1 MOL     -0.283580
     75 O14        -2.6910    9.1120    1.7710 oh        1 MOL     -0.596268
     76 H29        -1.1490    7.6870    0.4870 hn        1 MOL      0.238940
     77 H30        -3.8810    6.8040    0.7440 h1        1 MOL      0.180776
     78 H31        -3.8290    7.8660    2.7200 h1        1 MOL      0.055282
     79 H32        -1.7850    9.1780    1.4760 ho        1 MOL      0.362077
     80 H33        -0.9010    7.2770    3.3350 hc        1 MOL      0.066361
     81 H34        -1.8410    8.6700    3.9230 hc        1 MOL      0.066361
     82 H35        -2.2160    7.0090    4.2840 hc        1 MOL      0.066361
     83 N9         -1.7220    4.6300    1.9330 n         1 MOL     -0.098798
     84 C26        -1.5130    3.2900    2.5670 c3        1 MOL     -0.155749
     85 C27        -1.3530    2.1890    1.4860 c         1 MOL      0.517406
     86 O15        -0.5060    2.2000    0.6670 o         1 MOL     -0.419446
     87 C28        -0.3750    3.2790    3.5850 c3        1 MOL     -0.004517
     88 C29        -0.6460    4.1600    4.7690 c3        1 MOL     -0.000461
     89 C30         0.0430    1.8080    3.9810 c3        1 MOL     -0.206213
     90 C31        -1.2560    3.4800    6.0070 c3        1 MOL     -0.126277
     91 H36        -0.9100    5.1180    1.5900 hn        1 MOL      0.158818
     92 H37        -2.3640    2.9280    3.1530 h1        1 MOL      0.127956
     93 H38         0.5340    3.6430    3.0930 hc        1 MOL      0.042384
     94 H39        -1.2400    5.0270    4.5040 hc        1 MOL      0.022970
     95 H40         0.2590    4.6850    5.0890 hc        1 MOL      0.022970
     96 H41         0.4440    1.3120    3.0960 hc        1 MOL      0.083492
     97 H42         0.8210    1.8310    4.7570 hc        1 MOL      0.083492
     98 H43        -0.8130    1.2430    4.3500 hc        1 MOL      0.083492
     99 H44        -2.1570    2.9560    5.7010 hc        1 MOL      0.027319
    100 H45        -0.5460    2.7810    6.4530 hc        1 MOL      0.027319
    101 H46        -1.4240    4.1990    6.8090 hc        1 MOL      0.027319
    102 N10        -2.3180    1.2090    1.4650 n         1 MOL     -0.480078
    103 C32        -2.1970    0.0280    0.5920 c3        1 MOL      0.167931
    104 C33        -3.4890   -0.5050   -0.0400 c         1 MOL      0.452606
    105 O16        -3.5390   -1.6020   -0.5550 o         1 MOL     -0.414709
    106 C34        -1.3200   -1.0680    1.2470 c3        1 MOL     -0.170542
    107 C35        -0.4940   -1.9120    0.2450 c         1 MOL      0.669125
    108 O17        -0.0140   -2.9980    0.6490 o         1 MOL     -0.668753
    109 O18        -0.2320   -1.4670   -0.8840 o         1 MOL     -0.668753
    110 H47        -3.1190    1.2260    2.0770 hn        1 MOL      0.270682
    111 H48        -1.5550    0.2970   -0.2440 h1        1 MOL      0.002412
    112 H49        -2.0120   -1.6170    1.8940 hc        1 MOL      0.028128
    113 H50        -0.6450   -0.6240    1.9850 hc        1 MOL      0.028128
    114 N11        -4.6330    0.2540    0.0790 n         1 MOL     -0.475979
    115 C36        -5.8940   -0.2140   -0.5160 c3        1 MOL      0.136365
    116 C37        -6.3670   -1.4760    0.2720 c         1 MOL      0.297115
    117 O19        -6.5170   -1.3290    1.4730 o         1 MOL     -0.509541
    118 C38        -6.9290    0.9790   -0.4360 c3        1 MOL     -0.265182
    119 C39        -8.2510    0.5260   -0.9780 ca        1 MOL      0.140826
    120 C40        -8.4120    0.7010   -2.3480 ca        1 MOL     -0.185287
    121 C41        -9.3150    0.0490   -0.1680 ca        1 MOL     -0.185287
    122 C42        -9.5710    0.3210   -2.9420 ca        1 MOL     -0.099644
    123 C43       -10.4150   -0.4880   -0.8530 ca        1 MOL     -0.099644
    124 C44       -10.5360   -0.4000   -2.2050 ca        1 MOL     -0.114094
    125 H51        -4.5970    1.1520    0.5280 hn        1 MOL      0.291909
    126 H52        -5.6840   -0.5530   -1.5240 h1        1 MOL      0.052857
    127 H53        -6.5340    1.8820   -0.9200 hc        1 MOL      0.112469
    128 H54        -7.0320    1.2910    0.6040 hc        1 MOL      0.112469
    129 H55        -7.6010    1.1200   -2.9350 ha        1 MOL      0.138368
    130 H56        -9.2770   -0.1590    0.8930 ha        1 MOL      0.138368
    131 H57        -9.7450    0.4650   -4.0040 ha        1 MOL      0.100429
    132 H58       -11.1230   -1.0600   -0.2740 ha        1 MOL      0.100429
    133 H59       -11.4740   -0.7800   -2.5880 ha        1 MOL      0.091424
    134 N12        -6.5890   -2.6370   -0.3960 n         1 MOL      0.028061
    135 C45        -7.1550   -3.9050    0.2050 c3        1 MOL     -0.015126
    136 C46        -6.1150   -4.5660    1.1960 c         1 MOL      0.317906
    137 O20        -6.4610   -5.4720    1.9910 o         1 MOL     -0.521023
    138 C47        -7.4480   -4.8580   -0.9780 c3        1 MOL     -0.135775
    139 C48        -6.4660   -4.3770   -2.0520 c3        1 MOL      0.130441
    140 C49        -6.5030   -2.8570   -1.8520 c3        1 MOL     -0.282669
    141 H60        -8.0230   -3.6070    0.7960 h1        1 MOL      0.075683
    142 H61        -7.2950   -5.8870   -0.6720 hc        1 MOL      0.060657
    143 H62        -8.4430   -4.6870   -1.3860 hc        1 MOL      0.060657
    144 H63        -5.4510   -4.6630   -1.7940 hc        1 MOL      0.002574
    145 H64        -6.7590   -4.7480   -3.0350 hc        1 MOL      0.002574
    146 H65        -5.5800   -2.4350   -2.2640 h1        1 MOL      0.096634
    147 H66        -7.3560   -2.4030   -2.3760 h1        1 MOL      0.096634
    148 N13        -4.8880   -4.0810    1.2100 n         1 MOL     -0.129099
    149 C50        -3.7790   -4.9500    1.7220 c3        1 MOL     -0.339451
    150 C51        -3.4580   -4.5210    3.1410 c         1 MOL      0.444716
    151 O21        -2.7290   -5.2050    3.8830 o         1 MOL     -0.528126
    152 C52        -2.5790   -4.7700    0.8190 c3        1 MOL      0.304275
    153 C53        -2.6310   -5.5640   -0.4670 c3        1 MOL     -0.089810
    154 C54        -1.3500   -5.3290   -1.3450 c         1 MOL      0.594090
    155 O22        -1.3630   -4.3790   -2.1540 o         1 MOL     -0.730327
    156 O23        -0.2920   -5.8040   -0.8830 o         1 MOL     -0.730327
    157 H67        -4.5730   -3.3550    0.5790 hn        1 MOL      0.296798
    158 H68        -4.0280   -6.0090    1.6490 h1        1 MOL      0.190275
    159 H69        -1.7150   -5.1460    1.3630 hc        1 MOL     -0.004939
    160 H70        -2.5190   -3.6950    0.6340 hc        1 MOL     -0.004939
    161 H71        -3.4300   -5.1810   -1.0950 hc        1 MOL     -0.020693
    162 H72        -2.8660   -6.6020   -0.2290 hc        1 MOL     -0.020693
    163 N14        -4.0620   -3.4300    3.6700 n         1 MOL     -0.215013
    164 C55        -3.7170   -2.7980    4.9400 c3        1 MOL     -0.082775
    165 H73        -3.2350   -3.5280    5.5900 h1        1 MOL      0.056286
    166 H74        -3.0360   -1.9660    4.7600 h1        1 MOL      0.056286
    167 H75        -4.6230   -2.4290    5.4210 h1        1 MOL      0.056286
    168 H76        -4.5220   -2.8870    2.9620 hn        1 MOL      0.177262
    169 Ca1         1.1210   -3.6950   -1.6610 Ca        1 MOL      1.770756
    170 O24         2.6320   -4.7400    0.3230 oh        1 MOL     -0.818038
    171 H77         3.4990   -5.0490    0.0430 ho        1 MOL      0.402580
    172 H78         2.7090   -4.6880    1.2770 ho        1 MOL      0.402580
    173 O25         2.1600   -5.9190   -2.7560 oh        1 MOL     -0.818038
    174 H79         1.7640   -6.5050   -3.4120 ho        1 MOL      0.402580
    175 H80         3.0640   -6.2250   -2.6860 ho        1 MOL      0.402580
    176 O26         0.5540   -1.9220   -3.4530 oh        1 MOL     -0.818038
    177 H81         0.3400   -1.0020   -3.2900 ho        1 MOL      0.402580
    178 H82         0.6560   -1.9840   -4.4040 ho        1 MOL      0.402580
@<TRIPOS>BOND
     1    1    2 1   
     2    1    4 1   
     3    1    5 1   
     4    1    6 1   
     5    2    3 2   
     6    2    7 1   
     7    7    8 1   
     8    7   15 1   
     9    8    9 1   
    10    8   11 1   
    11    8   16 1   
    12    9   10 2   
    13    9   19 1   
    14   11   12 1   
    15   11   17 1   
    16   11   18 1   
    17   12   13 1   
    18   12   14 1   
    19   19   20 1   
    20   19   24 1   
    21   20   21 1   
    22   20   23 1   
    23   20   25 1   
    24   21   22 2   
    25   21   29 1   
    26   23   26 1   
    27   23   27 1   
    28   23   28 1   
    29   29   30 1   
    30   29   37 1   
    31   30   31 1   
    32   30   33 1   
    33   30   38 1   
    34   31   32 2   
    35   31   41 1   
    36   33   34 1   
    37   33   39 1   
    38   33   40 1   
    39   34   35 1   
    40   34   36 1   
    41   41   42 1   
    42   41   45 1   
    43   42   43 1   
    44   42   46 1   
    45   42   47 1   
    46   43   44 2   
    47   43   48 1   
    48   48   49 1   
    49   48   56 1   
    50   49   50 1   
    51   49   52 1   
    52   49   57 1   
    53   50   51 2   
    54   50   62 1   
    55   52   53 1   
    56   52   58 1   
    57   52   59 1   
    58   53   54 1   
    59   53   55 2   
    60   54   60 1   
    61   54   61 1   
    62   62   63 1   
    63   62   66 1   
    64   63   64 1   
    65   63   67 1   
    66   63   68 1   
    67   64   65 2   
    68   64   69 1   
    69   69   70 1   
    70   69   76 1   
    71   70   71 1   
    72   70   73 1   
    73   70   77 1   
    74   71   72 2   
    75   71   83 1   
    76   73   74 1   
    77   73   75 1   
    78   73   78 1   
    79   74   80 1   
    80   74   81 1   
    81   74   82 1   
    82   75   79 1   
    83   83   84 1   
    84   83   91 1   
    85   84   85 1   
    86   84   87 1   
    87   84   92 1   
    88   85   86 2   
    89   85  102 1   
    90   87   88 1   
    91   87   89 1   
    92   87   93 1   
    93   88   90 1   
    94   88   94 1   
    95   88   95 1   
    96   89   96 1   
    97   89   97 1   
    98   89   98 1   
    99   90   99 1   
   100   90  100 1   
   101   90  101 1   
   102  102  103 1   
   103  102  110 1   
   104  103  104 1   
   105  103  106 1   
   106  103  111 1   
   107  104  105 2   
   108  104  114 1   
   109  106  107 1   
   110  106  112 1   
   111  106  113 1   
   112  107  108 1   
   113  107  109 1   
   114  114  115 1   
   115  114  125 1   
   116  115  116 1   
   117  115  118 1   
   118  115  126 1   
   119  116  117 2   
   120  116  134 1   
   121  118  119 1   
   122  118  127 1   
   123  118  128 1   
   124  119  120 ar  
   125  119  121 ar  
   126  120  122 ar  
   127  120  129 1   
   128  121  123 ar  
   129  121  130 1   
   130  122  124 ar  
   131  122  131 1   
   132  123  124 ar  
   133  123  132 1   
   134  124  133 1   
   135  134  135 1   
   136  134  140 1   
   137  135  136 1   
   138  135  138 1   
   139  135  141 1   
   140  136  137 2   
   141  136  148 1   
   142  138  139 1   
   143  138  142 1   
   144  138  143 1   
   145  139  140 1   
   146  139  144 1   
   147  139  145 1   
   148  140  146 1   
   149  140  147 1   
   150  148  149 1   
   151  148  157 1   
   152  149  150 1   
   153  149  152 1   
   154  149  158 1   
   155  150  151 2   
   156  150  163 1   
   157  152  153 1   
   158  152  159 1   
   159  152  160 1   
   160  153  154 1   
   161  153  161 1   
   162  153  162 1   
   163  154  155 1   
   164  154  156 1   
   165  163  164 1   
   166  163  168 1   
   167  164  165 1   
   168  164  166 1   
   169  164  167 1   
   170  170  171 1   
   171  170  172 1   
   172  173  174 1   
   173  173  175 1   
   174  176  177 1   
   175  176  178 1   
@<TRIPOS>SUBSTRUCTURE
     1 MOL         1 TEMP              0 ****  ****    0 ROOT
