@<TRIPOS>MOLECULE
MOL
  198   191     1     0     0
SMALL
resp


@<TRIPOS>ATOM
      1 C1         -3.6660   -3.5670    2.1480 c3        1 MOL     -0.567110
      2 C2         -2.4560   -3.8680    1.2780 c         1 MOL      0.593532
      3 O1         -1.8450   -2.9470    0.6810 o         1 MOL     -0.452838
      4 H1         -3.3900   -2.8440    2.9150 hc        1 MOL      0.140406
      5 H2         -4.4640   -3.1540    1.5310 hc        1 MOL      0.140406
      6 H3         -4.0100   -4.4860    2.6220 hc        1 MOL      0.140406
      7 N1         -2.0480   -5.1840    1.1250 n         1 MOL     -0.541028
      8 C3         -0.8840   -5.5990    0.3000 c3        1 MOL     -0.308776
      9 C4          0.3980   -4.9310    0.6620 c         1 MOL      0.741107
     10 O2          1.3040   -4.6370   -0.1530 o         1 MOL     -0.610143
     11 C5         -1.1270   -5.5310   -1.1680 c3        1 MOL      0.096562
     12 C6         -2.5190   -6.0480   -1.5980 c         1 MOL      0.586119
     13 O3         -3.4910   -5.2950   -1.9150 o         1 MOL     -0.685702
     14 O4         -2.6360   -7.2660   -1.7860 o         1 MOL     -0.685702
     15 H4         -2.6240   -5.9340    1.4600 hn        1 MOL      0.340591
     16 H5         -0.8630   -6.6770    0.4690 h1        1 MOL      0.153935
     17 H6         -0.4310   -6.1000   -1.7870 hc        1 MOL      0.034172
     18 H7         -1.0960   -4.4800   -1.4650 hc        1 MOL      0.034172
     19 N2          0.5780   -4.6000    1.9590 n         1 MOL     -0.482531
     20 C7          1.7620   -3.8910    2.5520 c3        1 MOL     -0.233798
     21 C8          2.8890   -4.8480    2.8600 c         1 MOL      0.638849
     22 O5          2.6450   -5.9480    3.3330 o         1 MOL     -0.578133
     23 C9          1.2850   -2.9000    3.7010 c3        1 MOL      0.215296
     24 C10         0.6180   -3.7500    4.7080 c3        1 MOL      0.058550
     25 C11         0.4330   -1.7610    3.1510 c3        1 MOL     -0.350807
     26 C12         0.1910   -3.0830    6.0500 c3        1 MOL     -0.200340
     27 H8         -0.1470   -4.8460    2.6160 hn        1 MOL      0.279714
     28 H9          2.0470   -3.3030    1.6800 h1        1 MOL      0.132355
     29 H10         2.1790   -2.4850    4.1440 hc        1 MOL     -0.002555
     30 H11         1.1830   -4.6520    4.9370 hc        1 MOL      0.008762
     31 H12        -0.2800   -4.1130    4.2060 hc        1 MOL      0.008762
     32 H13        -0.5440   -2.1590    2.8650 hc        1 MOL      0.126198
     33 H14         0.3610   -0.9650    3.8960 hc        1 MOL      0.126198
     34 H15         0.9570   -1.4000    2.2620 hc        1 MOL      0.126198
     35 H16         1.0980   -2.9390    6.6460 hc        1 MOL      0.037228
     36 H17        -0.2230   -2.0780    5.9600 hc        1 MOL      0.037228
     37 H18        -0.4660   -3.7380    6.6260 hc        1 MOL      0.037228
     38 N3          4.2000   -4.4150    2.7500 n         1 MOL     -0.436016
     39 C13         4.6820   -3.1040    2.3830 c3        1 MOL     -0.014696
     40 C14         4.6970   -2.9430    0.8270 c         1 MOL      0.449749
     41 O6          4.7680   -1.7480    0.4280 o         1 MOL     -0.502489
     42 C15         6.0370   -2.7630    2.9950 c3        1 MOL     -0.095828
     43 C16         7.0000   -3.9590    3.0930 c         1 MOL      0.608915
     44 O7          7.9210   -3.9490    2.2030 o         1 MOL     -0.666946
     45 O8          6.8420   -4.8740    3.9700 o         1 MOL     -0.666946
     46 H19         4.7970   -5.0860    3.2030 hn        1 MOL      0.241806
     47 H20         4.0320   -2.3730    2.8620 h1        1 MOL      0.098185
     48 H21         6.0220   -2.2600    3.9610 hc        1 MOL      0.028861
     49 H22         6.5980   -2.0420    2.3970 hc        1 MOL      0.028861
     50 N4          4.5750   -3.9640    0.0340 n         1 MOL     -0.166656
     51 C17         4.5950   -3.8630   -1.4510 c3        1 MOL     -0.178840
     52 C18         5.9110   -3.2040   -1.9130 c         1 MOL      0.428208
     53 O9          7.0260   -3.5630   -1.5460 o         1 MOL     -0.500124
     54 H23         4.4320   -4.8300    0.5130 hn        1 MOL      0.245660
     55 H24         3.8180   -3.1720   -1.7870 h1        1 MOL      0.113581
     56 H25         4.4960   -4.8550   -1.9060 h1        1 MOL      0.113581
     57 N5          5.7770   -2.0850   -2.6850 n         1 MOL     -0.288684
     58 C19         6.9820   -1.3230   -3.1190 c3        1 MOL      0.006080
     59 C20         7.5420   -0.4310   -2.0150 c         1 MOL      0.402114
     60 O10         8.4670    0.3750   -2.2460 o         1 MOL     -0.596841
     61 C21         6.6010   -0.4390   -4.3420 c3        1 MOL     -0.134574
     62 C22         5.2490    0.2850   -4.1470 c         1 MOL      0.649202
     63 O11         5.3220    1.4050   -3.5750 o         1 MOL     -0.668948
     64 O12         4.1710   -0.1700   -4.6700 o         1 MOL     -0.668948
     65 H26         4.9030   -1.8060   -3.1170 hn        1 MOL      0.209241
     66 H27         7.7590   -2.0150   -3.4410 h1        1 MOL      0.082374
     67 H28         6.4770   -1.1090   -5.1860 hc        1 MOL      0.020870
     68 H29         7.4180    0.2260   -4.5950 hc        1 MOL      0.020870
     69 N6          7.0020   -0.3650   -0.8230 n         1 MOL     -0.087555
     70 C23         7.7300    0.3340    0.2870 c3        1 MOL      0.044133
     71 C24         7.3360    1.7540    0.6180 c         1 MOL      0.368876
     72 O13         7.7380    2.2850    1.6770 o         1 MOL     -0.563921
     73 H30         6.2720   -1.0420   -0.6720 hn        1 MOL      0.119494
     74 H31         8.8040    0.3720    0.1200 h1        1 MOL      0.062426
     75 H32         7.5360   -0.2560    1.1900 h1        1 MOL      0.062426
     76 N7          6.5120    2.3960   -0.2130 n         1 MOL     -0.062575
     77 C25         5.7990    3.6620   -0.0520 c3        1 MOL     -0.017310
     78 C26         4.6970    3.6730    1.0580 c         1 MOL      0.254306
     79 O14         4.2670    4.7300    1.5740 o         1 MOL     -0.472612
     80 C27         6.8060    4.8280    0.0750 c3        1 MOL      0.248036
     81 C28         7.6910    5.0040   -1.1620 c3        1 MOL     -0.514339
     82 C29         8.6210    6.1520   -1.1980 c         1 MOL      0.773157
     83 N8          9.7770    6.0460   -0.5670 n         1 MOL     -0.813301
     84 O15         8.5110    7.2380   -1.7640 o         1 MOL     -0.612192
     85 H33         6.2040    1.9000   -1.0410 hn        1 MOL      0.107354
     86 H34         5.3150    3.8280   -1.0120 h1        1 MOL      0.126323
     87 H35         7.3960    4.7760    0.9800 hc        1 MOL     -0.008179
     88 H36         6.2800    5.7580    0.3000 hc        1 MOL     -0.008179
     89 H37         6.9460    5.0950   -1.9540 hc        1 MOL      0.130571
     90 H38         8.3030    4.1300   -1.3700 hc        1 MOL      0.130571
     91 H39        10.0170    5.1550   -0.1550 hn        1 MOL      0.351983
     92 H40        10.4530    6.7950   -0.6610 hn        1 MOL      0.351983
     93 N9          4.1890    2.4450    1.3860 n         1 MOL     -0.216369
     94 C30         3.1040    2.1740    2.3970 c3        1 MOL      0.027569
     95 C31         1.8160    1.6470    1.7300 c         1 MOL      0.526382
     96 O16         0.8840    1.3120    2.4940 o         1 MOL     -0.556966
     97 C32         3.6320    1.4630    3.6180 c3        1 MOL      0.237315
     98 C33         4.0200   -0.0240    3.2630 c3        1 MOL     -0.229042
     99 C34         4.8240    2.1660    4.2080 c3        1 MOL     -0.229042
    100 H41         4.5420    1.6390    0.8900 hn        1 MOL      0.197046
    101 H42         2.8590    3.1620    2.7970 h1        1 MOL      0.072361
    102 H43         2.8000    1.4300    4.3150 hc        1 MOL     -0.028613
    103 H44         4.0340   -0.5610    4.2210 hc        1 MOL      0.048580
    104 H45         3.1520   -0.3930    2.7230 hc        1 MOL      0.048580
    105 H46         4.9300   -0.1670    2.6870 hc        1 MOL      0.048580
    106 H47         4.5390    3.1050    4.6790 hc        1 MOL      0.048580
    107 H48         5.1920    1.5430    5.0180 hc        1 MOL      0.048580
    108 H49         5.6380    2.3330    3.4980 hc        1 MOL      0.048580
    109 N10         1.7400    1.4360    0.3910 n         1 MOL     -0.668199
    110 C35         0.5300    1.1600   -0.2590 c3        1 MOL      0.417077
    111 C36        -0.1570    2.5260   -0.6310 c         1 MOL      0.603094
    112 O17         0.4820    3.6010   -0.7330 o         1 MOL     -0.469980
    113 C37         0.7830    0.4010   -1.6150 c3        1 MOL     -0.433690
    114 C38         1.3440   -0.9300   -1.3940 c         1 MOL      0.830705
    115 N11         0.5290   -1.8500   -0.9270 n         1 MOL     -0.815537
    116 O18         2.4760   -1.3030   -1.6600 o         1 MOL     -0.571464
    117 H50         2.5890    1.3290   -0.1440 hn        1 MOL      0.326532
    118 H51        -0.0970    0.5310    0.3670 h1        1 MOL     -0.064216
    119 H52         1.4590    1.0600   -2.1550 hc        1 MOL      0.106726
    120 H53        -0.2180    0.2800   -2.0250 hc        1 MOL      0.106726
    121 H54        -0.4790   -1.7800   -0.9180 hn        1 MOL      0.343169
    122 H55         0.8790   -2.7540   -0.6520 hn        1 MOL      0.343169
    123 N12        -1.4690    2.4420   -0.8680 n         1 MOL     -0.725434
    124 C39        -2.4180    3.5800   -0.8770 c3        1 MOL      0.366070
    125 C40        -3.6320    3.4300   -0.0120 c         1 MOL      0.515825
    126 O19        -4.3020    2.4090   -0.0010 o         1 MOL     -0.554985
    127 C41        -2.8970    3.9120   -2.3200 c3        1 MOL     -0.024560
    128 C42        -1.7710    4.3260   -3.2060 ca        1 MOL     -0.064513
    129 C43        -1.2060    3.4420   -4.1610 ca        1 MOL     -0.107892
    130 C44        -1.1790    5.6110   -3.0270 ca        1 MOL     -0.107892
    131 C45        -0.1090    3.7940   -4.9340 ca        1 MOL     -0.346983
    132 C46        -0.0470    5.9770   -3.7750 ca        1 MOL     -0.346983
    133 C47         0.5110    5.0680   -4.6790 ca        1 MOL      0.469324
    134 O20         1.5790    5.4210   -5.4600 oh        1 MOL     -0.551529
    135 H56        -1.9180    1.5430   -0.9850 hn        1 MOL      0.324481
    136 H57        -1.8670    4.4020   -0.4330 h1        1 MOL      0.018820
    137 H58        -3.6430    4.7050   -2.3290 hc        1 MOL      0.029994
    138 H59        -3.4050    3.0480   -2.7500 hc        1 MOL      0.029994
    139 H60        -1.6360    2.4510   -4.2120 ha        1 MOL      0.133616
    140 H61        -1.5990    6.2980   -2.3030 ha        1 MOL      0.133616
    141 H62         0.2730    3.0750   -5.6350 ha        1 MOL      0.169478
    142 H63         0.5820    6.8470   -3.7060 ha        1 MOL      0.169478
    143 H64         1.9320    4.6500   -5.9250 ho        1 MOL      0.388196
    144 N13        -4.0350    4.5390    0.6210 n         1 MOL     -0.542454
    145 C48        -5.3730    4.6800    1.2900 c3        1 MOL      0.109063
    146 C49        -6.5930    4.8860    0.3210 c         1 MOL      0.622610
    147 O21        -6.5750    5.7120   -0.6100 o         1 MOL     -0.579101
    148 C50        -5.3000    5.8030    2.3270 c3        1 MOL      0.058327
    149 C51        -6.6460    6.0730    3.0110 c3        1 MOL     -0.284116
    150 C52        -6.5700    7.1950    4.0820 c         1 MOL      0.669967
    151 O22        -6.7720    8.3710    3.6590 o         1 MOL     -0.675818
    152 O23        -6.1610    6.9310    5.2490 o         1 MOL     -0.675818
    153 H65        -3.6260    5.4210    0.3750 hn        1 MOL      0.258465
    154 H66        -5.6080    3.7740    1.8540 h1        1 MOL      0.026910
    155 H67        -4.9810    6.7720    1.9280 hc        1 MOL      0.033869
    156 H68        -4.5220    5.4910    3.0180 hc        1 MOL      0.033869
    157 H69        -7.1040    5.1660    3.4110 hc        1 MOL      0.060931
    158 H70        -7.3230    6.3910    2.2210 hc        1 MOL      0.060931
    159 N14        -7.7490    4.1820    0.3030 n         1 MOL     -0.653706
    160 C53        -7.6980    2.7780    0.8250 c3        1 MOL      0.007470
    161 C54        -8.2530    2.6150    2.2150 c         1 MOL      0.468162
    162 O24        -9.3340    3.1840    2.5730 o         1 MOL     -0.525845
    163 C55        -8.5460    1.8270   -0.1090 c3        1 MOL      0.042310
    164 C56        -8.1280    1.8900   -1.6100 c3        1 MOL     -0.019564
    165 C57        -8.6790    0.5940   -2.1850 c         1 MOL      0.550374
    166 O25        -9.8680    0.5390   -2.6490 o         1 MOL     -0.673543
    167 O26        -7.9260   -0.3880   -2.3230 o         1 MOL     -0.673543
    168 H71        -8.5500    4.4820   -0.2260 hn        1 MOL      0.421091
    169 H72        -6.7450    2.2700    0.7120 h1        1 MOL      0.113040
    170 H73        -9.5920    2.1400   -0.0430 hc        1 MOL     -0.027237
    171 H74        -8.4840    0.7960    0.2170 hc        1 MOL     -0.027237
    172 H75        -7.0350    1.8980   -1.6370 hc        1 MOL      0.012162
    173 H76        -8.5360    2.8210   -1.9930 hc        1 MOL      0.012162
    174 N15        -7.6590    1.6970    2.9970 n         1 MOL     -0.316188
    175 C58        -8.0340    1.3560    4.4200 c3        1 MOL     -0.177241
    176 H77        -7.5900    2.0850    5.0970 h1        1 MOL      0.095281
    177 H78        -9.1190    1.3780    4.5250 h1        1 MOL      0.095281
    178 H79        -7.6650    0.3600    4.6650 h1        1 MOL      0.095281
    179 H80        -6.8900    1.2260    2.5240 hn        1 MOL      0.250081
    180 Ca1        -5.9950   -5.2580   -1.7820 Ca        1 MOL      1.685509
    181 O27        -5.1470   -2.9450   -1.0870 oh        1 MOL     -0.835530
    182 O28        -6.0440   -7.5850   -0.5500 oh        1 MOL     -0.835530
    183 H81        -5.5330   -2.0670   -1.1250 ho        1 MOL      0.395790
    184 H82        -6.7370   -8.1980   -0.3330 ho        1 MOL      0.395790
    185 H83        -4.3460   -2.8380   -0.5800 ho        1 MOL      0.395790
    186 H84        -5.2760   -8.1350   -0.6870 ho        1 MOL      0.395790
    187 O29        -7.0200   -6.8690   -3.7710 oh        1 MOL     -0.835530
    188 H85        -7.2490   -7.7530   -4.0520 ho        1 MOL      0.395790
    189 H86        -6.8080   -6.4090   -4.5820 ho        1 MOL      0.395790
    190 O30        -7.8860   -3.0980   -2.2720 oh        1 MOL     -0.835530
    191 H87        -8.0690   -2.1760   -2.0580 ho        1 MOL      0.395790
    192 H88        -8.7400   -3.4870   -2.4210 ho        1 MOL      0.395790
    193 O31        -8.5030   -5.7920   -1.3650 oh        1 MOL     -0.835530
    194 H89        -8.9630   -5.7220   -0.5350 ho        1 MOL      0.395790
    195 H90        -9.1700   -5.6370   -2.0340 ho        1 MOL      0.395790
    196 O32        -5.4410   -4.3990   -4.1950 oh        1 MOL     -0.835530
    197 H91        -4.5110   -4.2220   -4.3200 ho        1 MOL      0.395790
    198 H92        -5.8570   -4.0500   -4.9800 ho        1 MOL      0.395790
@<TRIPOS>BOND
     1    1    2 1   
     2    1    4 1   
     3    1    5 1   
     4    1    6 1   
     5    2    3 2   
     6    2    7 1   
     7    7    8 1   
     8    7   15 1   
     9    8    9 1   
    10    8   11 1   
    11    8   16 1   
    12    9   10 2   
    13    9   19 1   
    14   11   12 1   
    15   11   17 1   
    16   11   18 1   
    17   12   13 1   
    18   12   14 1   
    19   19   20 1   
    20   19   27 1   
    21   20   21 1   
    22   20   23 1   
    23   20   28 1   
    24   21   22 2   
    25   21   38 1   
    26   23   24 1   
    27   23   25 1   
    28   23   29 1   
    29   24   26 1   
    30   24   30 1   
    31   24   31 1   
    32   25   32 1   
    33   25   33 1   
    34   25   34 1   
    35   26   35 1   
    36   26   36 1   
    37   26   37 1   
    38   38   39 1   
    39   38   46 1   
    40   39   40 1   
    41   39   42 1   
    42   39   47 1   
    43   40   41 2   
    44   40   50 1   
    45   42   43 1   
    46   42   48 1   
    47   42   49 1   
    48   43   44 1   
    49   43   45 1   
    50   50   51 1   
    51   50   54 1   
    52   51   52 1   
    53   51   55 1   
    54   51   56 1   
    55   52   53 2   
    56   52   57 1   
    57   57   58 1   
    58   57   65 1   
    59   58   59 1   
    60   58   61 1   
    61   58   66 1   
    62   59   60 2   
    63   59   69 1   
    64   61   62 1   
    65   61   67 1   
    66   61   68 1   
    67   62   63 1   
    68   62   64 1   
    69   69   70 1   
    70   69   73 1   
    71   70   71 1   
    72   70   74 1   
    73   70   75 1   
    74   71   72 2   
    75   71   76 1   
    76   76   77 1   
    77   76   85 1   
    78   77   78 1   
    79   77   80 1   
    80   77   86 1   
    81   78   79 2   
    82   78   93 1   
    83   80   81 1   
    84   80   87 1   
    85   80   88 1   
    86   81   82 1   
    87   81   89 1   
    88   81   90 1   
    89   82   83 1   
    90   82   84 2   
    91   83   91 1   
    92   83   92 1   
    93   93   94 1   
    94   93  100 1   
    95   94   95 1   
    96   94   97 1   
    97   94  101 1   
    98   95   96 2   
    99   95  109 1   
   100   97   98 1   
   101   97   99 1   
   102   97  102 1   
   103   98  103 1   
   104   98  104 1   
   105   98  105 1   
   106   99  106 1   
   107   99  107 1   
   108   99  108 1   
   109  109  110 1   
   110  109  117 1   
   111  110  111 1   
   112  110  113 1   
   113  110  118 1   
   114  111  112 2   
   115  111  123 1   
   116  113  114 1   
   117  113  119 1   
   118  113  120 1   
   119  114  115 1   
   120  114  116 2   
   121  115  121 1   
   122  115  122 1   
   123  123  124 1   
   124  123  135 1   
   125  124  125 1   
   126  124  127 1   
   127  124  136 1   
   128  125  126 2   
   129  125  144 1   
   130  127  128 1   
   131  127  137 1   
   132  127  138 1   
   133  128  129 ar  
   134  128  130 ar  
   135  129  131 ar  
   136  129  139 1   
   137  130  132 ar  
   138  130  140 1   
   139  131  133 ar  
   140  131  141 1   
   141  132  133 ar  
   142  132  142 1   
   143  133  134 1   
   144  134  143 1   
   145  144  145 1   
   146  144  153 1   
   147  145  146 1   
   148  145  148 1   
   149  145  154 1   
   150  146  147 2   
   151  146  159 1   
   152  148  149 1   
   153  148  155 1   
   154  148  156 1   
   155  149  150 1   
   156  149  157 1   
   157  149  158 1   
   158  150  151 1   
   159  150  152 1   
   160  159  160 1   
   161  159  168 1   
   162  160  161 1   
   163  160  163 1   
   164  160  169 1   
   165  161  162 2   
   166  161  174 1   
   167  163  164 1   
   168  163  170 1   
   169  163  171 1   
   170  164  165 1   
   171  164  172 1   
   172  164  173 1   
   173  165  166 1   
   174  165  167 1   
   175  174  175 1   
   176  174  179 1   
   177  175  176 1   
   178  175  177 1   
   179  175  178 1   
   180  181  183 1   
   181  181  185 1   
   182  182  184 1   
   183  182  186 1   
   184  187  188 1   
   185  187  189 1   
   186  190  191 1   
   187  190  192 1   
   188  193  194 1   
   189  193  195 1   
   190  196  197 1   
   191  196  198 1   
@<TRIPOS>SUBSTRUCTURE
     1 MOL         1 TEMP              0 ****  ****    0 ROOT
