@<TRIPOS>MOLECULE
MOL
  189   185     1     0     0
SMALL
resp


@<TRIPOS>ATOM
      1 C1          4.2910    4.6130   -3.3800 c3        1 MOL     -0.340609
      2 C2          4.9140    3.4950   -2.5090 c         1 MOL      0.778199
      3 O1          4.3640    2.9370   -1.5520 o         1 MOL     -0.689848
      4 H1          3.4800    5.0910   -2.8300 hc        1 MOL      0.095663
      5 H2          5.0520    5.3550   -3.6210 hc        1 MOL      0.095663
      6 H3          3.9000    4.1800   -4.3010 hc        1 MOL      0.095663
      7 N1          6.1700    3.0910   -2.8670 n         1 MOL     -0.666017
      8 C3          7.0290    2.0450   -2.3040 c3        1 MOL      0.182188
      9 C4          6.2960    0.8260   -1.8560 c         1 MOL      0.364568
     10 O2          5.9990    0.5470   -0.7110 o         1 MOL     -0.534964
     11 C5          7.9720    2.5620   -1.1990 c3        1 MOL     -0.073346
     12 C6          7.4190    3.6320   -0.2650 c         1 MOL      0.673589
     13 O3          6.4760    3.3100    0.5050 o         1 MOL     -0.693342
     14 O4          8.1220    4.6110   -0.1200 o         1 MOL     -0.693342
     15 H4          6.6230    3.6380   -3.5840 hn        1 MOL      0.325051
     16 H5          7.6890    1.7400   -3.1240 h1        1 MOL      0.048132
     17 H6          8.7980    2.8350   -1.8630 hc        1 MOL      0.006062
     18 H7          8.4090    1.7440   -0.6290 hc        1 MOL      0.006062
     19 N2          5.7510    0.1780   -2.9560 n         1 MOL     -0.591675
     20 C7          5.0560   -1.1320   -3.0470 c3        1 MOL      0.392284
     21 C8          5.7500   -2.2740   -2.2900 c         1 MOL      0.223019
     22 O5          5.9140   -3.2990   -2.9320 o         1 MOL     -0.549535
     23 C9          3.5240   -1.0310   -2.8550 c3        1 MOL      0.331410
     24 C10         2.7550   -2.3450   -3.1130 c3        1 MOL     -0.181132
     25 C11         2.9880    0.0920   -3.7550 c3        1 MOL     -0.343449
     26 C12         2.8220   -2.9650   -4.4640 c3        1 MOL     -0.353076
     27 H8          6.0430    0.5040   -3.8700 hn        1 MOL      0.287705
     28 H9          5.2620   -1.4110   -4.0740 h1        1 MOL     -0.013117
     29 H10         3.3120   -0.8410   -1.8030 hc        1 MOL     -0.145825
     30 H11         1.7000   -2.1510   -2.8870 hc        1 MOL      0.145992
     31 H12         3.0820   -3.0460   -2.3450 hc        1 MOL      0.145992
     32 H13         3.2530    1.0390   -3.2890 hc        1 MOL      0.060362
     33 H14         3.5390    0.0880   -4.6930 hc        1 MOL      0.060362
     34 H15         1.9070    0.1040   -3.9070 hc        1 MOL      0.060362
     35 H16         2.2380   -3.8950   -4.4500 hc        1 MOL      0.075733
     36 H17         2.2860   -2.4020   -5.2210 hc        1 MOL      0.075733
     37 H18         3.8590   -3.1410   -4.7480 hc        1 MOL      0.075733
     38 N3          6.2240   -2.0860   -1.0810 n         1 MOL     -0.058599
     39 C13         7.0270   -3.0530   -0.3310 c3        1 MOL     -0.091964
     40 C14         6.5100   -4.4620   -0.0610 c         1 MOL      0.725772
     41 O6          7.1790   -5.4350   -0.3400 o         1 MOL     -0.582074
     42 C15         7.3900   -2.3270    1.0270 c3        1 MOL     -0.328571
     43 C16         8.1210   -3.3900    1.9140 c         1 MOL      0.653833
     44 O7          9.1430   -3.8660    1.3950 o         1 MOL     -0.698496
     45 O8          7.5490   -3.7870    2.9660 o         1 MOL     -0.698496
     46 H19         6.1240   -1.1290   -0.7800 hn        1 MOL      0.247184
     47 H20         7.9190   -3.1680   -0.9340 h1        1 MOL      0.070452
     48 H21         6.5180   -2.0530    1.6300 hc        1 MOL      0.109104
     49 H22         7.9420   -1.3980    0.9190 hc        1 MOL      0.109104
     50 N4          5.2520   -4.6840    0.3430 n         1 MOL     -0.579648
     51 C17         4.2300   -3.6830    0.5730 c3        1 MOL      0.365241
     52 C18         3.1090   -4.3760    1.4280 c         1 MOL      0.567548
     53 O9          2.8530   -5.5650    1.2770 o         1 MOL     -0.587473
     54 H23         4.9580   -5.6310    0.5470 hn        1 MOL      0.289966
     55 H24         3.7720   -3.3240   -0.3480 h1        1 MOL     -0.107662
     56 H25         4.6500   -2.8400    1.1180 h1        1 MOL     -0.107662
     57 N5          2.4000   -3.6190    2.2650 n         1 MOL     -0.428459
     58 C19         2.5880   -2.2290    2.7370 c3        1 MOL     -0.008091
     59 C20         2.5410   -1.2610    1.5490 c         1 MOL      0.329975
     60 O10         3.5100   -0.6580    1.0940 o         1 MOL     -0.524780
     61 C21         3.8850   -2.0370    3.6150 c3        1 MOL     -0.200380
     62 C22         4.0370   -0.7380    4.3920 c         1 MOL      0.776874
     63 O11         5.1970   -0.4740    4.6860 o         1 MOL     -0.710183
     64 O12         3.0650   -0.0390    4.7650 o         1 MOL     -0.710183
     65 H26         1.8180   -4.1610    2.8900 hn        1 MOL      0.268468
     66 H27         1.6750   -2.0330    3.3040 h1        1 MOL      0.082268
     67 H28         4.8390   -2.2720    3.1510 hc        1 MOL      0.077586
     68 H29         3.8060   -2.7350    4.4450 hc        1 MOL      0.077586
     69 N6          1.4640   -0.9620    0.8690 n         1 MOL     -0.162131
     70 C23         0.0710   -1.2980    1.1470 c3        1 MOL     -0.042489
     71 C24        -0.5560   -2.5170    0.4550 c         1 MOL      0.405630
     72 O13         0.1380   -3.0730   -0.3800 o         1 MOL     -0.502118
     73 H30         1.5720   -0.2970    0.1090 hn        1 MOL      0.198891
     74 H31        -0.5300   -0.4600    0.8130 h1        1 MOL      0.058820
     75 H32        -0.0980   -1.3270    2.2210 h1        1 MOL      0.058820
     76 N7         -1.6390   -3.0430    0.9980 n         1 MOL     -0.357402
     77 C25        -2.2650   -4.2780    0.4650 c3        1 MOL      0.031210
     78 C26        -2.9260   -4.0120   -0.9520 c         1 MOL      0.345811
     79 O14        -3.0520   -4.9740   -1.7270 o         1 MOL     -0.516577
     80 C27        -3.2360   -4.9580    1.3820 c3        1 MOL     -0.065610
     81 C28        -4.2000   -3.9290    2.0720 c3        1 MOL      0.008012
     82 C29        -5.2360   -3.3960    1.0960 c         1 MOL      0.513873
     83 N8         -6.1280   -4.1950    0.5190 n         1 MOL     -0.746664
     84 O15        -5.2230   -2.1960    0.8250 o         1 MOL     -0.537072
     85 H33        -2.0560   -2.4820    1.7230 hn        1 MOL      0.262385
     86 H34        -1.5270   -5.0220    0.1810 h1        1 MOL      0.142496
     87 H35        -2.6900   -5.4190    2.2080 hc        1 MOL      0.032896
     88 H36        -3.8010   -5.7470    0.9010 hc        1 MOL      0.032896
     89 H37        -3.6610   -3.1290    2.5820 hc        1 MOL      0.021973
     90 H38        -4.7680   -4.4540    2.8430 hc        1 MOL      0.021973
     91 H39        -6.1700   -5.1950    0.6410 hn        1 MOL      0.382585
     92 H40        -6.8480   -3.7580   -0.0490 hn        1 MOL      0.382585
     93 N9         -3.1830   -2.7250   -1.3270 n         1 MOL     -0.053353
     94 C30        -3.5720   -2.2610   -2.6310 c3        1 MOL     -0.048728
     95 C31        -5.1060   -2.0200   -2.7970 c         1 MOL      0.323783
     96 O16        -5.4760   -2.0010   -3.9700 o         1 MOL     -0.554607
     97 C32        -2.8930   -1.0000   -3.1340 c3        1 MOL      0.084784
     98 C33        -1.3300   -1.2690   -3.3090 c3        1 MOL     -0.109223
     99 C34        -3.0790    0.2170   -2.2130 c3        1 MOL     -0.109223
    100 H41        -3.1830   -2.0480   -0.5700 hn        1 MOL      0.138379
    101 H42        -3.2770   -3.0230   -3.3600 h1        1 MOL      0.107466
    102 H43        -3.3320   -0.7630   -4.1000 hc        1 MOL      0.038988
    103 H44        -0.8370   -0.3900   -3.7250 hc        1 MOL      0.007989
    104 H45        -0.7780   -1.6010   -2.4270 hc        1 MOL      0.007989
    105 H46        -1.3290   -2.0990   -4.0060 hc        1 MOL      0.007989
    106 H47        -4.1350    0.4870   -2.1350 hc        1 MOL      0.007989
    107 H48        -2.6240    0.0470   -1.2350 hc        1 MOL      0.007989
    108 H49        -2.5800    1.0510   -2.7070 hc        1 MOL      0.007989
    109 N10        -5.9300   -1.7260   -1.8010 n         1 MOL     -0.092715
    110 C35        -7.2780   -1.2510   -2.0900 c3        1 MOL      0.171673
    111 C36        -7.4070    0.2490   -1.6040 c         1 MOL      0.266698
    112 O17        -8.4030    0.9250   -1.7880 o         1 MOL     -0.511201
    113 C37        -8.2580   -2.1570   -1.3850 c3        1 MOL     -0.417172
    114 C38        -8.4920   -3.5640   -1.9420 c         1 MOL      0.650455
    115 N11        -8.8950   -3.6140   -3.1960 n         1 MOL     -0.716895
    116 O18        -8.3820   -4.5760   -1.2320 o         1 MOL     -0.568989
    117 H50        -5.5750   -1.7680   -0.8600 hn        1 MOL      0.052098
    118 H51        -7.4630   -1.2250   -3.1640 h1        1 MOL      0.074004
    119 H52        -9.2300   -1.6720   -1.4590 hc        1 MOL      0.123319
    120 H53        -7.8870   -2.2490   -0.3650 hc        1 MOL      0.123319
    121 H54        -8.9180   -2.8220   -3.8230 hn        1 MOL      0.347555
    122 H55        -9.3080   -4.4800   -3.5000 hn        1 MOL      0.347555
    123 N12        -6.4030    0.8060   -0.9140 n         1 MOL     -0.101797
    124 C39        -6.4200    2.1180   -0.2810 c3        1 MOL     -0.016605
    125 C40        -5.0040    2.6010    0.1420 c         1 MOL      0.296232
    126 O19        -3.9550    2.0660   -0.1990 o         1 MOL     -0.405986
    127 C41        -7.4510    2.0400    0.8480 c3        1 MOL     -0.130580
    128 C42        -7.4800    0.8190    1.7430 ca        1 MOL     -0.187257
    129 C43        -6.4320    0.6630    2.6970 ca        1 MOL      0.023770
    130 C44        -8.4780   -0.1050    1.5390 ca        1 MOL      0.023770
    131 C45        -6.4720   -0.5000    3.4390 ca        1 MOL     -0.374971
    132 C46        -8.5440   -1.2510    2.3980 ca        1 MOL     -0.374971
    133 C47        -7.4510   -1.4760    3.3000 ca        1 MOL      0.494860
    134 O20        -7.3940   -2.5460    4.1290 oh        1 MOL     -0.568034
    135 H56        -5.6360    0.2010   -0.6480 hn        1 MOL      0.298403
    136 H57        -6.7940    2.8210   -1.0140 h1        1 MOL      0.086933
    137 H58        -8.4160    2.2140    0.3690 hc        1 MOL      0.072536
    138 H59        -7.3800    2.9580    1.4310 hc        1 MOL      0.072536
    139 H60        -5.6210    1.3640    2.7790 ha        1 MOL      0.111291
    140 H61        -9.3360    0.1670    0.9350 ha        1 MOL      0.111291
    141 H62        -5.6480   -0.7010    4.1030 ha        1 MOL      0.155572
    142 H63        -9.4320   -1.8350    2.2180 ha        1 MOL      0.155572
    143 H64        -6.5590   -2.5700    4.5910 ho        1 MOL      0.396902
    144 N13        -5.0270    3.7070    0.8670 n         1 MOL     -0.349801
    145 C48        -3.9320    4.5780    1.2760 c3        1 MOL      0.035835
    146 C49        -2.7460    5.0320    0.3780 c         1 MOL      0.284635
    147 O21        -2.2870    6.1480    0.5230 o         1 MOL     -0.528297
    148 C50        -3.3930    4.1190    2.6650 c3        1 MOL      0.193693
    149 C51        -2.7120    5.2650    3.4620 c3        1 MOL     -0.319269
    150 C52        -2.0430    4.7850    4.7550 c         1 MOL      0.701187
    151 O22        -1.8930    5.6280    5.6680 o         1 MOL     -0.719211
    152 O23        -1.5510    3.6320    4.8020 o         1 MOL     -0.719211
    153 H65        -5.9530    4.0900    1.0120 hn        1 MOL      0.251700
    154 H66        -4.4280    5.5070    1.5450 h1        1 MOL      0.041507
    155 H67        -2.6600    3.3270    2.5300 hc        1 MOL     -0.026469
    156 H68        -4.2380    3.7420    3.2510 hc        1 MOL     -0.026469
    157 H69        -3.5230    5.9750    3.6290 hc        1 MOL      0.063917
    158 H70        -2.0130    5.7830    2.8120 hc        1 MOL      0.063917
    159 N14        -2.1740    4.1330   -0.4110 n         1 MOL     -0.015533
    160 C53        -1.0920    4.3630   -1.3410 c3        1 MOL     -0.194443
    161 C54        -1.3300    5.4110   -2.4270 c         1 MOL      0.591742
    162 O24        -0.3830    5.8200   -3.0300 o         1 MOL     -0.557419
    163 C55        -0.4730    3.1240   -1.9420 c3        1 MOL      0.137038
    164 C56        -0.1400    1.9650   -0.9920 c3        1 MOL      0.139211
    165 C57         1.0490    2.3680   -0.0380 c         1 MOL      0.462452
    166 O25         0.8360    3.3260    0.7330 o         1 MOL     -0.529469
    167 O26         2.1120    1.6770   -0.1320 o         1 MOL     -0.529469
    168 H71        -2.5880    3.2090   -0.4470 hn        1 MOL      0.091299
    169 H72        -0.2530    4.7500   -0.7650 h1        1 MOL      0.121372
    170 H73         0.4370    3.4440   -2.4610 hc        1 MOL     -0.046341
    171 H74        -1.1890    2.8100   -2.7020 hc        1 MOL     -0.046341
    172 H75         0.1080    1.0820   -1.5960 hc        1 MOL     -0.023497
    173 H76        -1.0170    1.6870   -0.4100 hc        1 MOL     -0.023497
    174 N15        -2.5600    5.8440   -2.6270 n         1 MOL     -0.299429
    175 C58        -2.8590    6.9150   -3.6340 c3        1 MOL     -0.183644
    176 H77        -3.6390    7.5700   -3.2450 h1        1 MOL      0.084349
    177 H78        -1.9580    7.4970   -3.8240 h1        1 MOL      0.084349
    178 H79        -3.2000    6.4570   -4.5620 h1        1 MOL      0.084349
    179 H80        -3.3340    5.5000   -2.0780 hn        1 MOL      0.227884
    180 Ca1         4.4200    1.8990    0.8510 Ca        1 MOL      1.784870
    181 O27         2.8480    1.9530    3.1140 oh        1 MOL     -0.947915
    182 H81         2.0790    2.4670    3.3580 ho        1 MOL      0.440933
    183 H82         2.9640    1.3280    3.8420 ho        1 MOL      0.440933
    184 O28         6.1710    0.6290    2.4040 oh        1 MOL     -0.947915
    185 H83         5.9560    0.3500    3.2930 ho        1 MOL      0.440933
    186 H84         7.1270    0.6220    2.3710 ho        1 MOL      0.440933
    187 O29         3.3470    4.4940    1.4450 oh        1 MOL     -0.947915
    188 H85         2.4800    4.3820    1.0710 ho        1 MOL      0.440933
    189 H86         3.4540    5.4380    1.5440 ho        1 MOL      0.440933
@<TRIPOS>BOND
     1    1    2 1   
     2    1    4 1   
     3    1    5 1   
     4    1    6 1   
     5    2    3 2   
     6    2    7 1   
     7    7    8 1   
     8    7   15 1   
     9    8    9 1   
    10    8   11 1   
    11    8   16 1   
    12    9   10 2   
    13    9   19 1   
    14   11   12 1   
    15   11   17 1   
    16   11   18 1   
    17   12   13 1   
    18   12   14 1   
    19   19   20 1   
    20   19   27 1   
    21   20   21 1   
    22   20   23 1   
    23   20   28 1   
    24   21   22 2   
    25   21   38 1   
    26   23   24 1   
    27   23   25 1   
    28   23   29 1   
    29   24   26 1   
    30   24   30 1   
    31   24   31 1   
    32   25   32 1   
    33   25   33 1   
    34   25   34 1   
    35   26   35 1   
    36   26   36 1   
    37   26   37 1   
    38   38   39 1   
    39   38   46 1   
    40   39   40 1   
    41   39   42 1   
    42   39   47 1   
    43   40   41 2   
    44   40   50 1   
    45   42   43 1   
    46   42   48 1   
    47   42   49 1   
    48   43   44 1   
    49   43   45 1   
    50   50   51 1   
    51   50   54 1   
    52   51   52 1   
    53   51   55 1   
    54   51   56 1   
    55   52   53 2   
    56   52   57 1   
    57   57   58 1   
    58   57   65 1   
    59   58   59 1   
    60   58   61 1   
    61   58   66 1   
    62   59   60 2   
    63   59   69 1   
    64   61   62 1   
    65   61   67 1   
    66   61   68 1   
    67   62   63 1   
    68   62   64 1   
    69   69   70 1   
    70   69   73 1   
    71   70   71 1   
    72   70   74 1   
    73   70   75 1   
    74   71   72 2   
    75   71   76 1   
    76   76   77 1   
    77   76   85 1   
    78   77   78 1   
    79   77   80 1   
    80   77   86 1   
    81   78   79 2   
    82   78   93 1   
    83   80   81 1   
    84   80   87 1   
    85   80   88 1   
    86   81   82 1   
    87   81   89 1   
    88   81   90 1   
    89   82   83 1   
    90   82   84 2   
    91   83   91 1   
    92   83   92 1   
    93   93   94 1   
    94   93  100 1   
    95   94   95 1   
    96   94   97 1   
    97   94  101 1   
    98   95   96 2   
    99   95  109 1   
   100   97   98 1   
   101   97   99 1   
   102   97  102 1   
   103   98  103 1   
   104   98  104 1   
   105   98  105 1   
   106   99  106 1   
   107   99  107 1   
   108   99  108 1   
   109  109  110 1   
   110  109  117 1   
   111  110  111 1   
   112  110  113 1   
   113  110  118 1   
   114  111  112 2   
   115  111  123 1   
   116  113  114 1   
   117  113  119 1   
   118  113  120 1   
   119  114  115 1   
   120  114  116 2   
   121  115  121 1   
   122  115  122 1   
   123  123  124 1   
   124  123  135 1   
   125  124  125 1   
   126  124  127 1   
   127  124  136 1   
   128  125  126 2   
   129  125  144 1   
   130  127  128 1   
   131  127  137 1   
   132  127  138 1   
   133  128  129 ar  
   134  128  130 ar  
   135  129  131 ar  
   136  129  139 1   
   137  130  132 ar  
   138  130  140 1   
   139  131  133 ar  
   140  131  141 1   
   141  132  133 ar  
   142  132  142 1   
   143  133  134 1   
   144  134  143 1   
   145  144  145 1   
   146  144  153 1   
   147  145  146 1   
   148  145  148 1   
   149  145  154 1   
   150  146  147 2   
   151  146  159 1   
   152  148  149 1   
   153  148  155 1   
   154  148  156 1   
   155  149  150 1   
   156  149  157 1   
   157  149  158 1   
   158  150  151 1   
   159  150  152 1   
   160  159  160 1   
   161  159  168 1   
   162  160  161 1   
   163  160  163 1   
   164  160  169 1   
   165  161  162 2   
   166  161  174 1   
   167  163  164 1   
   168  163  170 1   
   169  163  171 1   
   170  164  165 1   
   171  164  172 1   
   172  164  173 1   
   173  165  166 1   
   174  165  167 1   
   175  174  175 1   
   176  174  179 1   
   177  175  176 1   
   178  175  177 1   
   179  175  178 1   
   180  181  182 1   
   181  181  183 1   
   182  184  185 1   
   183  184  186 1   
   184  187  188 1   
   185  187  189 1   
@<TRIPOS>SUBSTRUCTURE
     1 MOL         1 TEMP              0 ****  ****    0 ROOT
