@<TRIPOS>MOLECULE
MOL
  195   189     1     0     0
SMALL
resp


@<TRIPOS>ATOM
      1 C1         -2.9740    5.2400    3.5680 c3        1 MOL     -0.210856
      2 C2         -2.9120    4.3830    2.2770 c         1 MOL      0.696893
      3 O1         -3.9410    4.2050    1.6530 o         1 MOL     -0.640213
      4 H1         -2.8690    6.2940    3.3090 hc        1 MOL      0.047668
      5 H2         -3.9310    5.0820    4.0640 hc        1 MOL      0.047668
      6 H3         -2.1650    4.9490    4.2370 hc        1 MOL      0.047668
      7 N1         -1.7530    3.9510    1.7640 n         1 MOL     -0.459756
      8 C3         -0.3700    4.0110    2.2880 c3        1 MOL      0.082931
      9 C4          0.4540    5.0940    1.5720 c         1 MOL      0.534437
     10 O2          1.1400    5.8360    2.2800 o         1 MOL     -0.545415
     11 C5          0.2050    2.6150    2.2200 c3        1 MOL     -0.285214
     12 C6         -0.5590    1.5350    2.9990 c         1 MOL      0.841897
     13 O3         -1.0740    0.5930    2.4210 o         1 MOL     -0.784025
     14 O4         -0.7500    1.6030    4.2210 o         1 MOL     -0.784025
     15 H4         -1.9540    3.4800    0.8890 hn        1 MOL      0.291150
     16 H5         -0.3070    4.2820    3.3480 h1        1 MOL      0.055682
     17 H6          1.2330    2.5830    2.5950 hc        1 MOL      0.088637
     18 H7          0.2280    2.3140    1.1720 hc        1 MOL      0.088637
     19 N2          0.3350    5.2980    0.2350 n         1 MOL     -0.473187
     20 C7          0.9070    6.5030   -0.5160 c3        1 MOL     -0.081817
     21 C8          2.3500    6.4090   -0.9600 c         1 MOL      0.407005
     22 O5          2.8680    7.3660   -1.4980 o         1 MOL     -0.565557
     23 C9         -0.1220    6.8410   -1.6170 c3        1 MOL      0.176088
     24 C10        -0.1970    5.8960   -2.8000 c3        1 MOL     -0.054206
     25 C11        -1.5160    7.1230   -1.0950 c3        1 MOL     -0.206827
     26 C12         0.8910    6.1280   -3.8700 c3        1 MOL     -0.056729
     27 H8         -0.3540    4.8310   -0.3510 hn        1 MOL      0.302367
     28 H9          0.8800    7.3810    0.1290 h1        1 MOL      0.119184
     29 H10         0.2670    7.7870   -1.9770 hc        1 MOL     -0.016865
     30 H11        -1.1400    5.9750   -3.3240 hc        1 MOL      0.010401
     31 H12        -0.1930    4.8710   -2.4460 hc        1 MOL      0.010401
     32 H13        -1.4580    7.7230   -0.1920 hc        1 MOL      0.040003
     33 H14        -2.1680    7.5900   -1.8270 hc        1 MOL      0.040003
     34 H15        -1.9350    6.1630   -0.8050 hc        1 MOL      0.040003
     35 H16         1.9050    5.9200   -3.5350 hc        1 MOL      0.016936
     36 H17         0.7450    5.6540   -4.8370 hc        1 MOL      0.016936
     37 H18         0.8630    7.1700   -4.1780 hc        1 MOL      0.016936
     38 N3          2.9620    5.2400   -0.8470 n         1 MOL     -0.103262
     39 C13         4.4090    5.0220   -0.9470 c3        1 MOL      0.132330
     40 C14         4.9200    4.1020    0.1550 c         1 MOL      0.360815
     41 O6          4.1330    3.7080    0.9800 o         1 MOL     -0.483595
     42 C15         4.6360    4.6100   -2.4150 c3        1 MOL     -0.238025
     43 C16         6.0570    4.3370   -2.9280 c         1 MOL      0.690417
     44 O7          6.1810    3.7880   -4.0840 o         1 MOL     -0.710845
     45 O8          7.0780    4.7800   -2.3460 o         1 MOL     -0.710845
     46 H19         2.3330    4.4700   -0.6430 hn        1 MOL      0.139178
     47 H20         4.9800    5.9330   -0.7660 h1        1 MOL      0.033288
     48 H21         4.2700    5.3320   -3.1460 hc        1 MOL      0.045619
     49 H22         3.9920    3.7380   -2.5890 hc        1 MOL      0.045619
     50 N4          6.1940    3.7690    0.1490 n         1 MOL     -0.316560
     51 C17         6.7860    2.7370    1.0580 c3        1 MOL     -0.237074
     52 C18         6.5670    1.2840    0.5970 c         1 MOL      0.799988
     53 O9          6.1980    1.0080   -0.5440 o         1 MOL     -0.559622
     54 H23         6.7660    4.2810   -0.5090 hn        1 MOL      0.259876
     55 H24         6.3940    2.9230    2.0580 h1        1 MOL      0.106732
     56 H25         7.8700    2.8550    1.1040 h1        1 MOL      0.106732
     57 N5          6.7180    0.3860    1.5030 n         1 MOL     -0.708569
     58 C19         6.5660   -1.0330    1.2640 c3        1 MOL      0.356032
     59 C20         7.5260   -1.5830    0.1950 c         1 MOL      0.313520
     60 O10         8.6440   -1.0400   -0.0490 o         1 MOL     -0.539025
     61 C21         6.7920   -1.8350    2.5820 c3        1 MOL     -0.189304
     62 C22         5.9210   -1.2540    3.7060 c         1 MOL      0.672245
     63 O11         4.6640   -1.1270    3.5570 o         1 MOL     -0.705922
     64 O12         6.5900   -0.9520    4.6890 o         1 MOL     -0.705922
     65 H26         6.9390    0.6440    2.4550 hn        1 MOL      0.334165
     66 H27         5.5310   -1.2520    0.9880 h1        1 MOL      0.011570
     67 H28         7.8300   -1.9210    2.9220 hc        1 MOL      0.024793
     68 H29         6.3860   -2.8340    2.4340 hc        1 MOL      0.024793
     69 N6          7.2730   -2.6290   -0.5630 n         1 MOL     -0.349220
     70 C23         6.0100   -3.3000   -0.8280 c3        1 MOL      0.019867
     71 C24         6.0600   -4.6230   -1.6690 c         1 MOL      0.552781
     72 O13         7.0480   -4.8040   -2.3910 o         1 MOL     -0.521315
     73 H30         8.1150   -2.9260   -1.0430 hn        1 MOL      0.266901
     74 H31         5.4550   -2.6240   -1.4760 h1        1 MOL      0.075194
     75 H32         5.5110   -3.3230    0.1400 h1        1 MOL      0.075194
     76 N7          5.0670   -5.5620   -1.5170 n         1 MOL     -0.620363
     77 C25         3.8840   -5.6760   -0.7700 c3        1 MOL      0.157187
     78 C26         3.0020   -4.3460   -0.6160 c         1 MOL      0.548543
     79 O14         3.2310   -3.7170    0.3990 o         1 MOL     -0.439320
     80 C27         4.2060   -6.2780    0.6040 c3        1 MOL     -0.083191
     81 C28         3.0350   -6.5450    1.5770 c3        1 MOL     -0.174540
     82 C29         3.4100   -7.2050    2.8760 c         1 MOL      0.660239
     83 N8          3.7210   -8.4920    2.7870 n         1 MOL     -0.802844
     84 O15         3.6450   -6.5920    3.9280 o         1 MOL     -0.522145
     85 H33         5.1550   -6.3490   -2.1370 hn        1 MOL      0.316240
     86 H34         3.1550   -6.3660   -1.1920 h1        1 MOL      0.010591
     87 H35         4.9530   -5.6070    1.0010 hc        1 MOL      0.052803
     88 H36         4.7240   -7.2340    0.5950 hc        1 MOL      0.052803
     89 H37         2.3720   -7.1700    0.9790 hc        1 MOL      0.026339
     90 H38         2.4360   -5.6700    1.8410 hc        1 MOL      0.026339
     91 H39         3.6770   -9.0470    1.9430 hn        1 MOL      0.350269
     92 H40         4.1930   -8.9950    3.5360 hn        1 MOL      0.350269
     93 N9          2.0410   -4.0950   -1.5620 n         1 MOL     -0.506144
     94 C30         1.0190   -3.0600   -1.4240 c3        1 MOL     -0.171093
     95 C31         1.1690   -2.0400   -2.4960 c         1 MOL      0.624250
     96 O16         1.5150   -2.4030   -3.6090 o         1 MOL     -0.561566
     97 C32        -0.4530   -3.6270   -1.4760 c3        1 MOL      0.475071
     98 C33        -0.6610   -4.5550   -0.2660 c3        1 MOL     -0.188801
     99 C34        -0.8300   -4.4170   -2.6960 c3        1 MOL     -0.188801
    100 H41         1.9650   -4.7550   -2.3310 hn        1 MOL      0.290320
    101 H42         1.1670   -2.5660   -0.4630 h1        1 MOL      0.113661
    102 H43        -1.2180   -2.8530   -1.3850 hc        1 MOL     -0.073414
    103 H44        -0.8160   -4.0020    0.6670 hc        1 MOL      0.031066
    104 H45        -1.5320   -5.1540   -0.4910 hc        1 MOL      0.031066
    105 H46         0.2120   -5.2050   -0.2360 hc        1 MOL      0.031066
    106 H47        -0.5840   -5.4760   -2.6170 hc        1 MOL      0.031066
    107 H48        -1.9150   -4.4410   -2.8030 hc        1 MOL      0.031066
    108 H49        -0.3630   -4.0310   -3.6010 hc        1 MOL      0.031066
    109 N10         0.7290   -0.8020   -2.2790 n         1 MOL     -0.423565
    110 C35         0.4100    0.2550   -3.2820 c3        1 MOL      0.115667
    111 C36        -1.0200    0.7450   -3.2680 c         1 MOL      0.578921
    112 O17        -1.2890    1.9590   -3.2490 o         1 MOL     -0.550034
    113 C37         1.4660    1.3480   -3.1870 c3        1 MOL     -0.277116
    114 C38         1.7500    1.9370   -1.7700 c         1 MOL      0.732460
    115 N11         2.6940    1.3890   -1.0260 n         1 MOL     -0.681058
    116 O18         1.1460    2.8400   -1.2960 o         1 MOL     -0.544527
    117 H50         0.5350   -0.4720   -1.3510 hn        1 MOL      0.221898
    118 H51         0.6060   -0.2870   -4.2070 h1        1 MOL      0.043241
    119 H52         1.1080    2.1510   -3.8390 hc        1 MOL      0.076693
    120 H53         2.4180    0.9080   -3.4830 hc        1 MOL      0.076693
    121 H54         3.0920    0.5470   -1.4200 hn        1 MOL      0.323089
    122 H55         2.9230    1.7970   -0.1300 hn        1 MOL      0.323089
    123 N12        -1.9710   -0.1420   -3.0570 n         1 MOL     -0.382757
    124 C39        -3.4280   -0.0100   -3.0980 c3        1 MOL     -0.023239
    125 C40        -4.1320   -0.9920   -2.1060 c         1 MOL      0.558699
    126 O19        -3.5200   -1.9520   -1.5770 o         1 MOL     -0.429673
    127 C41        -3.8980   -0.2820   -4.5780 c3        1 MOL     -0.000976
    128 C42        -3.3690   -1.6510   -5.0760 ca        1 MOL     -0.035113
    129 C43        -4.1730   -2.7770   -4.8390 ca        1 MOL     -0.073019
    130 C44        -2.0530   -1.7430   -5.6390 ca        1 MOL     -0.073019
    131 C45        -3.7880   -4.0390   -5.3010 ca        1 MOL     -0.299750
    132 C46        -1.7060   -3.0080   -6.1530 ca        1 MOL     -0.299750
    133 C47        -2.6080   -4.1060   -6.0430 ca        1 MOL      0.312224
    134 O20        -2.2590   -5.3010   -6.4850 oh        1 MOL     -0.476312
    135 H56        -1.6800   -1.1090   -2.9860 hn        1 MOL      0.164808
    136 H57        -3.7170    1.0100   -2.8190 h1        1 MOL      0.119172
    137 H58        -3.6140    0.4810   -5.2930 hc        1 MOL      0.006488
    138 H59        -4.9880   -0.2690   -4.6140 hc        1 MOL      0.006488
    139 H60        -5.0580   -2.7200   -4.2210 ha        1 MOL      0.116181
    140 H61        -1.3850   -0.9090   -5.7880 ha        1 MOL      0.116181
    141 H62        -4.3480   -4.9020   -4.9610 ha        1 MOL      0.167900
    142 H63        -0.7180   -3.1320   -6.5580 ha        1 MOL      0.167900
    143 H64        -1.4830   -5.3420   -7.0480 ho        1 MOL      0.355513
    144 N13        -5.4030   -0.6520   -1.8200 n         1 MOL     -0.431404
    145 C48        -6.1150   -1.3060   -0.7010 c3        1 MOL     -0.131212
    146 C49        -6.9580   -0.2260   -0.0050 c         1 MOL      0.589864
    147 O21        -8.1800   -0.0290   -0.1760 o         1 MOL     -0.547882
    148 C50        -6.9210   -2.5030   -1.2490 c3        1 MOL     -0.182990
    149 C51        -7.3870   -3.3480   -0.0940 c3        1 MOL     -0.231444
    150 C52        -8.0380   -4.6830   -0.4260 c         1 MOL      0.768043
    151 O22        -9.0900   -4.9430    0.1300 o         1 MOL     -0.760988
    152 O23        -7.4750   -5.5490   -1.1540 o         1 MOL     -0.760988
    153 H65        -5.8810    0.1050   -2.2710 hn        1 MOL      0.285605
    154 H66        -5.4830   -1.7040    0.0930 h1        1 MOL      0.110260
    155 H67        -6.2660   -3.0750   -1.9100 hc        1 MOL      0.089130
    156 H68        -7.8130   -2.1900   -1.7920 hc        1 MOL      0.089130
    157 H69        -8.0420   -2.8070    0.5880 hc        1 MOL      0.053623
    158 H70        -6.4600   -3.6590    0.4080 hc        1 MOL      0.053623
    159 N14        -6.3400    0.6080    0.7770 n         1 MOL     -0.425393
    160 C53        -6.8570    1.8610    1.3330 c3        1 MOL     -0.156799
    161 C54        -6.6450    2.9570    0.2390 c         1 MOL      0.422789
    162 O24        -7.3930    3.8910    0.1540 o         1 MOL     -0.533153
    163 C55        -6.3380    2.1920    2.7010 c3        1 MOL      0.273735
    164 C56        -6.2630    1.0410    3.6320 c3        1 MOL     -0.149647
    165 C57        -4.7590    0.5830    3.8090 c         1 MOL      0.599684
    166 O25        -4.1850    0.7970    4.8700 o         1 MOL     -0.707247
    167 O26        -4.1810   -0.0790    2.9220 o         1 MOL     -0.707247
    168 H71        -5.3350    0.6120    0.7630 hn        1 MOL      0.327844
    169 H72        -7.9020    1.6430    1.5400 h1        1 MOL      0.131504
    170 H73        -6.9140    3.0190    3.1060 hc        1 MOL     -0.027616
    171 H74        -5.3330    2.5620    2.4980 hc        1 MOL     -0.027616
    172 H75        -6.9420    0.2440    3.3390 hc        1 MOL      0.010659
    173 H76        -6.6470    1.4190    4.5830 hc        1 MOL      0.010659
    174 N15        -5.7350    2.7860   -0.7510 n         1 MOL     -0.043531
    175 C58        -5.7160    3.5450   -1.9970 c3        1 MOL     -0.127028
    176 H77        -4.7440    4.0230   -2.1170 h1        1 MOL      0.057441
    177 H78        -5.8950    2.8730   -2.8360 h1        1 MOL      0.057441
    178 H79        -6.4940    4.3080   -1.9700 h1        1 MOL      0.057441
    179 H80        -5.0460    2.0550   -0.7010 hn        1 MOL      0.103652
    180 Ca1        -1.9030   -0.7550    4.6580 Ca        1 MOL      1.697684
    181 O27        -0.7830   -3.0470    5.9780 oh        1 MOL     -0.769735
    182 H81        -0.2390   -2.5680    6.6080 ho        1 MOL      0.386517
    183 H82        -1.4530   -3.4660    6.5210 ho        1 MOL      0.386517
    184 O28        -3.5930   -2.1980    6.0080 oh        1 MOL     -0.769735
    185 H83        -4.2280   -1.8910    6.6590 ho        1 MOL      0.386517
    186 H84        -3.5510   -3.1420    6.1390 ho        1 MOL      0.386517
    187 O29        -1.5860   -0.1120    7.2120 oh        1 MOL     -0.769735
    188 H85        -1.1030   -0.4290    7.9870 ho        1 MOL      0.386517
    189 H86        -1.7760    0.8050    7.4110 ho        1 MOL      0.386517
    190 O30        -1.8260   -2.5650    2.7340 oh        1 MOL     -0.769735
    191 H87        -2.1370   -2.7320    1.8440 ho        1 MOL      0.386517
    192 H88        -1.6230   -3.4420    3.0790 ho        1 MOL      0.386517
    193 O31         0.7680   -1.0290    4.4110 oh        1 MOL     -0.769735
    194 H89         1.3440   -0.6290    5.0570 ho        1 MOL      0.386517
    195 H90         1.3440   -1.5540    3.8590 ho        1 MOL      0.386517
@<TRIPOS>BOND
     1    1    2 1   
     2    1    4 1   
     3    1    5 1   
     4    1    6 1   
     5    2    3 2   
     6    2    7 1   
     7    7    8 1   
     8    7   15 1   
     9    8    9 1   
    10    8   11 1   
    11    8   16 1   
    12    9   10 2   
    13    9   19 1   
    14   11   12 1   
    15   11   17 1   
    16   11   18 1   
    17   12   13 1   
    18   12   14 1   
    19   19   20 1   
    20   19   27 1   
    21   20   21 1   
    22   20   23 1   
    23   20   28 1   
    24   21   22 2   
    25   21   38 1   
    26   23   24 1   
    27   23   25 1   
    28   23   29 1   
    29   24   26 1   
    30   24   30 1   
    31   24   31 1   
    32   25   32 1   
    33   25   33 1   
    34   25   34 1   
    35   26   35 1   
    36   26   36 1   
    37   26   37 1   
    38   38   39 1   
    39   38   46 1   
    40   39   40 1   
    41   39   42 1   
    42   39   47 1   
    43   40   41 2   
    44   40   50 1   
    45   42   43 1   
    46   42   48 1   
    47   42   49 1   
    48   43   44 1   
    49   43   45 1   
    50   50   51 1   
    51   50   54 1   
    52   51   52 1   
    53   51   55 1   
    54   51   56 1   
    55   52   53 2   
    56   52   57 1   
    57   57   58 1   
    58   57   65 1   
    59   58   59 1   
    60   58   61 1   
    61   58   66 1   
    62   59   60 2   
    63   59   69 1   
    64   61   62 1   
    65   61   67 1   
    66   61   68 1   
    67   62   63 1   
    68   62   64 1   
    69   69   70 1   
    70   69   73 1   
    71   70   71 1   
    72   70   74 1   
    73   70   75 1   
    74   71   72 2   
    75   71   76 1   
    76   76   77 1   
    77   76   85 1   
    78   77   78 1   
    79   77   80 1   
    80   77   86 1   
    81   78   79 2   
    82   78   93 1   
    83   80   81 1   
    84   80   87 1   
    85   80   88 1   
    86   81   82 1   
    87   81   89 1   
    88   81   90 1   
    89   82   83 1   
    90   82   84 2   
    91   83   91 1   
    92   83   92 1   
    93   93   94 1   
    94   93  100 1   
    95   94   95 1   
    96   94   97 1   
    97   94  101 1   
    98   95   96 2   
    99   95  109 1   
   100   97   98 1   
   101   97   99 1   
   102   97  102 1   
   103   98  103 1   
   104   98  104 1   
   105   98  105 1   
   106   99  106 1   
   107   99  107 1   
   108   99  108 1   
   109  109  110 1   
   110  109  117 1   
   111  110  111 1   
   112  110  113 1   
   113  110  118 1   
   114  111  112 2   
   115  111  123 1   
   116  113  114 1   
   117  113  119 1   
   118  113  120 1   
   119  114  115 1   
   120  114  116 2   
   121  115  121 1   
   122  115  122 1   
   123  123  124 1   
   124  123  135 1   
   125  124  125 1   
   126  124  127 1   
   127  124  136 1   
   128  125  126 2   
   129  125  144 1   
   130  127  128 1   
   131  127  137 1   
   132  127  138 1   
   133  128  129 ar  
   134  128  130 ar  
   135  129  131 ar  
   136  129  139 1   
   137  130  132 ar  
   138  130  140 1   
   139  131  133 ar  
   140  131  141 1   
   141  132  133 ar  
   142  132  142 1   
   143  133  134 1   
   144  134  143 1   
   145  144  145 1   
   146  144  153 1   
   147  145  146 1   
   148  145  148 1   
   149  145  154 1   
   150  146  147 2   
   151  146  159 1   
   152  148  149 1   
   153  148  155 1   
   154  148  156 1   
   155  149  150 1   
   156  149  157 1   
   157  149  158 1   
   158  150  151 1   
   159  150  152 1   
   160  159  160 1   
   161  159  168 1   
   162  160  161 1   
   163  160  163 1   
   164  160  169 1   
   165  161  162 2   
   166  161  174 1   
   167  163  164 1   
   168  163  170 1   
   169  163  171 1   
   170  164  165 1   
   171  164  172 1   
   172  164  173 1   
   173  165  166 1   
   174  165  167 1   
   175  174  175 1   
   176  174  179 1   
   177  175  176 1   
   178  175  177 1   
   179  175  178 1   
   180  181  182 1   
   181  181  183 1   
   182  184  185 1   
   183  184  186 1   
   184  187  188 1   
   185  187  189 1   
   186  190  191 1   
   187  190  192 1   
   188  193  194 1   
   189  193  195 1   
@<TRIPOS>SUBSTRUCTURE
     1 MOL         1 TEMP              0 ****  ****    0 ROOT
