@<TRIPOS>MOLECULE
MOL
  189   185     1     0     0
SMALL
resp


@<TRIPOS>ATOM
      1 C1          3.8660    4.6590   -3.3820 c3        1 MOL     -0.369696
      2 C2          4.7150    3.8360   -2.4160 c         1 MOL      0.753768
      3 O1          4.1790    3.3690   -1.3970 o         1 MOL     -0.685127
      4 H1          2.9110    4.1580   -3.5440 hc        1 MOL      0.094454
      5 H2          3.6900    5.6480   -2.9590 hc        1 MOL      0.094454
      6 H3          4.3900    4.7570   -4.3320 hc        1 MOL      0.094454
      7 N1          5.8950    3.5220   -2.8230 n         1 MOL     -0.611489
      8 C3          6.7540    2.4160   -2.3360 c3        1 MOL      0.257639
      9 C4          5.9910    1.1200   -1.9390 c         1 MOL      0.540099
     10 O2          5.5530    0.8050   -0.8530 o         1 MOL     -0.622704
     11 C5          7.8100    2.8750   -1.3090 c3        1 MOL     -0.164674
     12 C6          7.2360    3.6910   -0.1320 c         1 MOL      0.728881
     13 O3          6.5090    3.1260    0.7040 o         1 MOL     -0.718839
     14 O4          7.4170    4.9260   -0.1070 o         1 MOL     -0.718839
     15 H4          6.1910    3.8910   -3.7150 hn        1 MOL      0.328826
     16 H5          7.3410    2.0680   -3.1930 h1        1 MOL     -0.017346
     17 H6          8.5400    3.4680   -1.8700 hc        1 MOL      0.016643
     18 H7          8.3480    1.9800   -0.9890 hc        1 MOL      0.016643
     19 N2          5.5570    0.5430   -2.9770 n         1 MOL     -0.420307
     20 C7          4.9950   -0.8070   -3.0650 c3        1 MOL      0.078450
     21 C8          5.8520   -1.8960   -2.3790 c         1 MOL      0.328556
     22 O5          6.5140   -2.6300   -3.1230 o         1 MOL     -0.551059
     23 C9          3.5060   -0.9430   -2.5810 c3        1 MOL      0.224162
     24 C10         2.8400   -2.2550   -2.9440 c3        1 MOL      0.017614
     25 C11         2.6050    0.1940   -3.2450 c3        1 MOL     -0.149108
     26 C12         3.0640   -2.8480   -4.3610 c3        1 MOL     -0.218322
     27 H8          5.6060    0.9310   -3.9160 hn        1 MOL      0.258606
     28 H9          4.9310   -1.0930   -4.1160 h1        1 MOL      0.032819
     29 H10         3.4220   -0.7580   -1.5120 hc        1 MOL     -0.169048
     30 H11         1.7760   -2.2170   -2.7260 hc        1 MOL      0.044343
     31 H12         3.2090   -3.0110   -2.2530 hc        1 MOL      0.044343
     32 H13         2.8560    1.2250   -2.9830 hc        1 MOL      0.016489
     33 H14         2.6710    0.1270   -4.3310 hc        1 MOL      0.016489
     34 H15         1.5490    0.0620   -2.9970 hc        1 MOL      0.016489
     35 H16         2.1540   -3.2410   -4.8160 hc        1 MOL      0.040935
     36 H17         3.3950   -2.0750   -5.0580 hc        1 MOL      0.040935
     37 H18         3.7900   -3.6650   -4.4070 hc        1 MOL      0.040935
     38 N3          5.9470   -1.9140   -1.0220 n         1 MOL     -0.001891
     39 C13         6.9810   -2.6780   -0.1850 c3        1 MOL     -0.254561
     40 C14         6.6430   -4.1350    0.2240 c         1 MOL      0.662638
     41 O6          7.4170   -5.0480   -0.1150 o         1 MOL     -0.588153
     42 C15         7.2140   -1.7210    0.9890 c3        1 MOL     -0.009335
     43 C16         8.5220   -2.1150    1.7570 c         1 MOL      0.642366
     44 O7          8.4280   -2.8790    2.7750 o         1 MOL     -0.710573
     45 O8          9.5560   -1.5510    1.3350 o         1 MOL     -0.710573
     46 H19         5.5440   -1.1030   -0.5730 hn        1 MOL      0.199760
     47 H20         7.9010   -2.6830   -0.7580 h1        1 MOL      0.110013
     48 H21         6.3720   -1.6930    1.6870 hc        1 MOL      0.027458
     49 H22         7.3620   -0.6870    0.6700 hc        1 MOL      0.027458
     50 N4          5.4520   -4.4280    0.6970 n         1 MOL     -0.558705
     51 C17         4.2940   -3.5260    0.9510 c3        1 MOL      0.171780
     52 C18         3.2160   -4.1300    1.9010 c         1 MOL      0.673228
     53 O9          3.1590   -5.3790    1.9390 o         1 MOL     -0.640770
     54 H23         5.1920   -5.4040    0.7350 hn        1 MOL      0.305327
     55 H24         3.7420   -3.3980    0.0160 h1        1 MOL     -0.002461
     56 H25         4.5700   -2.5640    1.3840 h1        1 MOL     -0.002461
     57 N5          2.3920   -3.3770    2.5380 n         1 MOL     -0.337850
     58 C19         2.4020   -1.9250    2.8700 c3        1 MOL      0.010293
     59 C20         2.4360   -0.9060    1.6790 c         1 MOL      0.611773
     60 O10         3.4590   -0.4560    1.2060 o         1 MOL     -0.691441
     61 C21         3.5530   -1.5990    3.8840 c3        1 MOL     -0.247751
     62 C22         3.7860   -2.4640    5.0950 c         1 MOL      0.652086
     63 O11         4.9420   -2.5140    5.6530 o         1 MOL     -0.693670
     64 O12         2.8170   -3.1120    5.4710 o         1 MOL     -0.693670
     65 H26         1.5980   -3.8690    2.9250 hn        1 MOL      0.231468
     66 H27         1.4350   -1.8230    3.3760 h1        1 MOL      0.055846
     67 H28         3.3720   -0.5890    4.2590 hc        1 MOL      0.062160
     68 H29         4.5090   -1.5860    3.3560 hc        1 MOL      0.062160
     69 N6          1.2930   -0.6800    1.0830 n         1 MOL     -0.477255
     70 C23        -0.0410   -1.3430    1.2710 c3        1 MOL      0.076412
     71 C24        -0.1940   -2.6110    0.4090 c         1 MOL      0.548969
     72 O13         0.8160   -3.1030   -0.1620 o         1 MOL     -0.586456
     73 H30         1.4110   -0.1970    0.1990 hn        1 MOL      0.381089
     74 H31        -0.8430   -0.6880    0.9250 h1        1 MOL      0.036833
     75 H32        -0.1940   -1.4390    2.3480 h1        1 MOL      0.036833
     76 N7         -1.4270   -3.0940    0.4040 n         1 MOL     -0.396799
     77 C25        -1.8450   -4.4160   -0.2030 c3        1 MOL      0.009954
     78 C26        -2.6260   -4.3280   -1.5640 c         1 MOL      0.400081
     79 O14        -2.7260   -5.3090   -2.2900 o         1 MOL     -0.513881
     80 C27        -2.2740   -5.4650    0.8370 c3        1 MOL     -0.019986
     81 C28        -3.5260   -4.9930    1.6210 c3        1 MOL     -0.215923
     82 C29        -4.6920   -4.4230    0.7450 c         1 MOL      0.533034
     83 N8         -5.5280   -5.3250    0.3370 n         1 MOL     -0.650016
     84 O15        -4.8060   -3.2660    0.3980 o         1 MOL     -0.519297
     85 H33        -2.1390   -2.5390    0.8630 hn        1 MOL      0.222002
     86 H34        -0.9120   -4.8430   -0.5840 h1        1 MOL      0.134096
     87 H35        -1.4600   -5.7670    1.5060 hc        1 MOL      0.048474
     88 H36        -2.4770   -6.3460    0.2420 hc        1 MOL      0.048474
     89 H37        -3.2050   -4.1820    2.2630 hc        1 MOL      0.075212
     90 H38        -3.9660   -5.7590    2.2610 hc        1 MOL      0.075212
     91 H39        -5.4200   -6.2570    0.7050 hn        1 MOL      0.336066
     92 H40        -6.3140   -5.0450   -0.2380 hn        1 MOL      0.336066
     93 N9         -2.9440   -3.0930   -1.9600 n         1 MOL     -0.144856
     94 C30        -3.5410   -2.6920   -3.2280 c3        1 MOL     -0.161201
     95 C31        -4.9110   -2.0440   -3.2750 c         1 MOL      0.452281
     96 O16        -5.4250   -1.7740   -4.3820 o         1 MOL     -0.538825
     97 C32        -2.5130   -1.8070   -4.0060 c3        1 MOL      0.275280
     98 C33        -1.1730   -2.5650   -4.1740 c3        1 MOL     -0.244396
     99 C34        -2.0850   -0.4240   -3.4340 c3        1 MOL     -0.244396
    100 H41        -2.8330   -2.3770   -1.2640 hn        1 MOL      0.185250
    101 H42        -3.5270   -3.5980   -3.8220 h1        1 MOL      0.123395
    102 H43        -2.9650   -1.6940   -4.9900 hc        1 MOL     -0.010500
    103 H44        -0.4880   -1.9780   -4.7800 hc        1 MOL      0.053343
    104 H45        -0.6960   -2.7040   -3.1950 hc        1 MOL      0.053343
    105 H46        -1.4580   -3.5250   -4.5850 hc        1 MOL      0.053343
    106 H47        -1.4160   -0.6050   -2.5970 hc        1 MOL      0.053343
    107 H48        -1.7620    0.1760   -4.2790 hc        1 MOL      0.053343
    108 H49        -2.8680    0.1400   -2.9180 hc        1 MOL      0.053343
    109 N10        -5.5660   -1.6930   -2.1220 n         1 MOL     -0.346636
    110 C35        -6.9440   -1.1300   -2.1350 c3        1 MOL      0.049551
    111 C36        -7.1230    0.2170   -1.4620 c         1 MOL      0.491522
    112 O17        -8.0660    0.9250   -1.7480 o         1 MOL     -0.508931
    113 C37        -7.8460   -2.1680   -1.4430 c3        1 MOL     -0.412896
    114 C38        -8.0000   -3.4980   -2.1590 c         1 MOL      0.757161
    115 N11        -8.3070   -3.5330   -3.4120 n         1 MOL     -0.790630
    116 O18        -7.7950   -4.5250   -1.5320 o         1 MOL     -0.601374
    117 H50        -5.1090   -1.8730   -1.2470 hn        1 MOL      0.300052
    118 H51        -7.2360   -1.1090   -3.1860 h1        1 MOL      0.087331
    119 H52        -8.8840   -1.8460   -1.4340 hc        1 MOL      0.128983
    120 H53        -7.4590   -2.3560   -0.4410 hc        1 MOL      0.128983
    121 H54        -8.1550   -2.6980   -3.9770 hn        1 MOL      0.372876
    122 H55        -8.3450   -4.4410   -3.8540 hn        1 MOL      0.372876
    123 N12        -6.1660    0.6540   -0.5580 n         1 MOL     -0.357144
    124 C39        -6.2560    1.8640    0.2300 c3        1 MOL      0.153576
    125 C40        -4.8690    2.4970    0.6560 c         1 MOL      0.394492
    126 O19        -3.8480    1.8280    0.6380 o         1 MOL     -0.415946
    127 C41        -7.1510    1.6590    1.5290 c3        1 MOL     -0.244197
    128 C42        -6.8160    0.4120    2.3220 ca        1 MOL      0.096418
    129 C43        -6.0800    0.5180    3.5060 ca        1 MOL     -0.138636
    130 C44        -7.4720   -0.7530    2.0460 ca        1 MOL     -0.138636
    131 C45        -6.0690   -0.5830    4.4280 ca        1 MOL     -0.316430
    132 C46        -7.4770   -1.8130    2.9400 ca        1 MOL     -0.316430
    133 C47        -6.7670   -1.7610    4.1530 ca        1 MOL      0.412348
    134 O20        -6.7050   -2.7790    4.9760 oh        1 MOL     -0.526403
    135 H56        -5.2820    0.1910   -0.4400 hn        1 MOL      0.172414
    136 H57        -6.6680    2.6940   -0.3380 h1        1 MOL      0.018314
    137 H58        -8.1740    1.5690    1.1550 hc        1 MOL      0.073198
    138 H59        -7.0150    2.5090    2.1910 hc        1 MOL      0.073198
    139 H60        -5.7200    1.4980    3.7920 ha        1 MOL      0.153401
    140 H61        -8.1500   -0.8070    1.2080 ha        1 MOL      0.153401
    141 H62        -5.6090   -0.4960    5.3930 ha        1 MOL      0.141207
    142 H63        -8.0850   -2.6250    2.5840 ha        1 MOL      0.141207
    143 H64        -5.9850   -2.6410    5.6030 ho        1 MOL      0.396309
    144 N13        -4.9190    3.7980    0.9020 n         1 MOL     -0.332539
    145 C48        -3.8320    4.7100    1.2890 c3        1 MOL      0.166970
    146 C49        -2.7000    4.9860    0.2390 c         1 MOL      0.461180
    147 O21        -1.9390    5.9630    0.3370 o         1 MOL     -0.469139
    148 C50        -3.1680    4.4200    2.6940 c3        1 MOL     -0.074056
    149 C51        -4.0720    4.7540    3.9150 c3        1 MOL     -0.206708
    150 C52        -3.9150    6.2530    4.2940 c         1 MOL      0.699151
    151 O22        -4.9330    7.0380    4.3670 o         1 MOL     -0.726578
    152 O23        -2.8040    6.7860    4.5220 o         1 MOL     -0.726578
    153 H65        -5.7750    4.2900    0.6960 hn        1 MOL      0.259895
    154 H66        -4.2910    5.6990    1.3440 h1        1 MOL      0.030559
    155 H67        -2.1880    4.8910    2.7360 hc        1 MOL      0.068854
    156 H68        -2.9630    3.3480    2.6950 hc        1 MOL      0.068854
    157 H69        -3.8120    4.2430    4.8400 hc        1 MOL      0.006172
    158 H70        -5.0990    4.5730    3.6030 hc        1 MOL      0.006172
    159 N14        -2.6080    4.1110   -0.7860 n         1 MOL     -0.692279
    160 C53        -1.3990    4.1270   -1.6730 c3        1 MOL      0.040469
    161 C54        -1.6990    4.9600   -2.9680 c         1 MOL      0.361051
    162 O24        -0.7940    5.2610   -3.7890 o         1 MOL     -0.539473
    163 C55        -0.8340    2.7500   -2.0430 c3        1 MOL      0.055189
    164 C56        -0.5910    1.9180   -0.7580 c3        1 MOL      0.467507
    165 C57         0.5680    2.3990    0.0880 c         1 MOL      0.319906
    166 O25         0.3670    3.3250    0.9370 o         1 MOL     -0.588194
    167 O26         1.7030    2.0880   -0.2370 o         1 MOL     -0.588194
    168 H71        -3.1240    3.2440   -0.8000 hn        1 MOL      0.311381
    169 H72        -0.6200    4.7310   -1.2280 h1        1 MOL      0.183147
    170 H73         0.1100    2.7540   -2.5840 hc        1 MOL     -0.002017
    171 H74        -1.5370    2.2460   -2.7120 hc        1 MOL     -0.002017
    172 H75        -0.3800    0.8860   -1.0560 hc        1 MOL     -0.187564
    173 H76        -1.5100    1.8450   -0.1790 hc        1 MOL     -0.187564
    174 N15        -2.9210    5.4710   -3.1150 n         1 MOL     -0.160120
    175 C58        -3.4500    6.3280   -4.2220 c3        1 MOL     -0.174600
    176 H77        -4.4720    6.0300   -4.4550 h1        1 MOL      0.082889
    177 H78        -3.4390    7.3720   -3.9110 h1        1 MOL      0.082889
    178 H79        -2.8270    6.2050   -5.1070 h1        1 MOL      0.082889
    179 H80        -3.5480    5.2960   -2.3400 hn        1 MOL      0.201927
    180 Ca1         3.9820    2.0890    0.8710 Ca        1 MOL      1.819189
    181 O27         5.5410    1.8460    3.0300 oh        1 MOL     -0.899145
    182 H81         5.1830    1.7220    3.9050 ho        1 MOL      0.436764
    183 H82         6.4710    2.0340    3.1690 ho        1 MOL      0.436764
    184 O28         2.2540    1.9170    3.0500 oh        1 MOL     -0.899145
    185 H83         2.1450    1.6880    3.9830 ho        1 MOL      0.436764
    186 H84         1.4350    2.3580    2.8160 ho        1 MOL      0.436764
    187 O29         3.3210    4.6010    1.4870 oh        1 MOL     -0.899145
    188 H85         2.4470    4.9820    1.5040 ho        1 MOL      0.436764
    189 H86         3.8470    5.2280    0.9960 ho        1 MOL      0.436764
@<TRIPOS>BOND
     1    1    2 1   
     2    1    4 1   
     3    1    5 1   
     4    1    6 1   
     5    2    3 2   
     6    2    7 1   
     7    7    8 1   
     8    7   15 1   
     9    8    9 1   
    10    8   11 1   
    11    8   16 1   
    12    9   10 2   
    13    9   19 1   
    14   11   12 1   
    15   11   17 1   
    16   11   18 1   
    17   12   13 1   
    18   12   14 1   
    19   19   20 1   
    20   19   27 1   
    21   20   21 1   
    22   20   23 1   
    23   20   28 1   
    24   21   22 2   
    25   21   38 1   
    26   23   24 1   
    27   23   25 1   
    28   23   29 1   
    29   24   26 1   
    30   24   30 1   
    31   24   31 1   
    32   25   32 1   
    33   25   33 1   
    34   25   34 1   
    35   26   35 1   
    36   26   36 1   
    37   26   37 1   
    38   38   39 1   
    39   38   46 1   
    40   39   40 1   
    41   39   42 1   
    42   39   47 1   
    43   40   41 2   
    44   40   50 1   
    45   42   43 1   
    46   42   48 1   
    47   42   49 1   
    48   43   44 1   
    49   43   45 1   
    50   50   51 1   
    51   50   54 1   
    52   51   52 1   
    53   51   55 1   
    54   51   56 1   
    55   52   53 2   
    56   52   57 1   
    57   57   58 1   
    58   57   65 1   
    59   58   59 1   
    60   58   61 1   
    61   58   66 1   
    62   59   60 2   
    63   59   69 1   
    64   61   62 1   
    65   61   67 1   
    66   61   68 1   
    67   62   63 1   
    68   62   64 1   
    69   69   70 1   
    70   69   73 1   
    71   70   71 1   
    72   70   74 1   
    73   70   75 1   
    74   71   72 2   
    75   71   76 1   
    76   76   77 1   
    77   76   85 1   
    78   77   78 1   
    79   77   80 1   
    80   77   86 1   
    81   78   79 2   
    82   78   93 1   
    83   80   81 1   
    84   80   87 1   
    85   80   88 1   
    86   81   82 1   
    87   81   89 1   
    88   81   90 1   
    89   82   83 1   
    90   82   84 2   
    91   83   91 1   
    92   83   92 1   
    93   93   94 1   
    94   93  100 1   
    95   94   95 1   
    96   94   97 1   
    97   94  101 1   
    98   95   96 2   
    99   95  109 1   
   100   97   98 1   
   101   97   99 1   
   102   97  102 1   
   103   98  103 1   
   104   98  104 1   
   105   98  105 1   
   106   99  106 1   
   107   99  107 1   
   108   99  108 1   
   109  109  110 1   
   110  109  117 1   
   111  110  111 1   
   112  110  113 1   
   113  110  118 1   
   114  111  112 2   
   115  111  123 1   
   116  113  114 1   
   117  113  119 1   
   118  113  120 1   
   119  114  115 1   
   120  114  116 2   
   121  115  121 1   
   122  115  122 1   
   123  123  124 1   
   124  123  135 1   
   125  124  125 1   
   126  124  127 1   
   127  124  136 1   
   128  125  126 2   
   129  125  144 1   
   130  127  128 1   
   131  127  137 1   
   132  127  138 1   
   133  128  129 ar  
   134  128  130 ar  
   135  129  131 ar  
   136  129  139 1   
   137  130  132 ar  
   138  130  140 1   
   139  131  133 ar  
   140  131  141 1   
   141  132  133 ar  
   142  132  142 1   
   143  133  134 1   
   144  134  143 1   
   145  144  145 1   
   146  144  153 1   
   147  145  146 1   
   148  145  148 1   
   149  145  154 1   
   150  146  147 2   
   151  146  159 1   
   152  148  149 1   
   153  148  155 1   
   154  148  156 1   
   155  149  150 1   
   156  149  157 1   
   157  149  158 1   
   158  150  151 1   
   159  150  152 1   
   160  159  160 1   
   161  159  168 1   
   162  160  161 1   
   163  160  163 1   
   164  160  169 1   
   165  161  162 2   
   166  161  174 1   
   167  163  164 1   
   168  163  170 1   
   169  163  171 1   
   170  164  165 1   
   171  164  172 1   
   172  164  173 1   
   173  165  166 1   
   174  165  167 1   
   175  174  175 1   
   176  174  179 1   
   177  175  176 1   
   178  175  177 1   
   179  175  178 1   
   180  181  182 1   
   181  181  183 1   
   182  184  185 1   
   183  184  186 1   
   184  187  188 1   
   185  187  189 1   
@<TRIPOS>SUBSTRUCTURE
     1 MOL         1 TEMP              0 ****  ****    0 ROOT
