@<TRIPOS>MOLECULE
MOL
  181   177     1     0     0
SMALL
resp


@<TRIPOS>ATOM
      1 C1         -8.7170   -5.7790   -4.3410 c3        1 MOL     -0.202147
      2 C2         -8.2970   -5.3310   -2.9330 c         1 MOL      0.553200
      3 O1         -7.2520   -5.7530   -2.4410 o         1 MOL     -0.580194
      4 H1         -7.9020   -5.5920   -5.0390 hc        1 MOL      0.044336
      5 H2         -8.9490   -6.8440   -4.3310 hc        1 MOL      0.044336
      6 H3         -9.5980   -5.2180   -4.6540 hc        1 MOL      0.044336
      7 N1         -8.9360   -4.4360   -2.2350 n         1 MOL     -0.065906
      8 C3        -10.2000   -3.7880   -2.4850 c3        1 MOL     -0.378172
      9 C4        -10.9550   -3.3270   -1.1760 c         1 MOL      0.611438
     10 O2        -10.6350   -3.9470   -0.1680 o         1 MOL     -0.462177
     11 C5         -9.8430   -2.5290   -3.3310 c3        1 MOL      0.051075
     12 C6         -8.9060   -1.5550   -2.5420 c         1 MOL      0.428753
     13 O3         -7.6750   -1.6200   -2.7060 o         1 MOL     -0.665385
     14 O4         -9.3550   -0.6810   -1.7420 o         1 MOL     -0.665385
     15 H4         -8.5990   -4.1960   -1.3120 hn        1 MOL      0.185760
     16 H5        -10.8980   -4.3320   -3.1130 h1        1 MOL      0.147856
     17 H6        -10.7800   -2.0370   -3.6060 hc        1 MOL     -0.003898
     18 H7         -9.3100   -2.8330   -4.2330 hc        1 MOL     -0.003898
     19 N2        -11.8250   -2.3450   -1.1280 n         1 MOL     -0.575861
     20 C7        -12.3990   -1.6880    0.1370 c3        1 MOL      0.236315
     21 C8        -11.4740   -1.2540    1.2930 c         1 MOL      0.329256
     22 O5        -11.8960   -0.5090    2.1650 o         1 MOL     -0.540092
     23 C9        -13.7130   -2.3350    0.7050 c3        1 MOL     -0.193922
     24 H8        -11.9740   -1.7990   -1.9570 hn        1 MOL      0.340076
     25 H9        -12.9150   -0.8020   -0.2460 h1        1 MOL      0.048016
     26 H10       -13.5850   -3.3830    0.9710 hc        1 MOL      0.049974
     27 H11       -13.9760   -1.6750    1.5350 hc        1 MOL      0.049974
     28 H12       -14.5140   -2.2850   -0.0460 hc        1 MOL      0.049974
     29 N3        -10.1820   -1.5630    1.2050 n         1 MOL      0.224808
     30 C10        -9.1380   -1.0800    2.1050 c3        1 MOL     -0.240967
     31 C11        -8.7400    0.4280    1.8670 c         1 MOL      0.660612
     32 O6         -8.9590    1.0200    0.8480 o         1 MOL     -0.591168
     33 C12        -7.9260   -2.0630    2.0420 c3        1 MOL     -0.153010
     34 C13        -7.4050   -2.0840    0.6170 c         1 MOL      0.568383
     35 O7         -7.6240   -3.0630   -0.1210 o         1 MOL     -0.520473
     36 O8         -6.7250   -1.1540    0.1860 o         1 MOL     -0.520473
     37 H13        -9.9330   -2.1350    0.4110 hn        1 MOL     -0.184688
     38 H14        -9.5410   -1.1390    3.1160 h1        1 MOL      0.087904
     39 H15        -8.2820   -3.0540    2.3040 hc        1 MOL      0.054178
     40 H16        -7.1640   -1.7800    2.7750 hc        1 MOL      0.054178
     41 N4         -8.1630    1.0650    2.8990 n         1 MOL     -0.500074
     42 C14        -7.8140    2.5090    2.8170 c3        1 MOL     -0.233067
     43 C15        -6.6360    2.8200    1.8740 c         1 MOL      0.783407
     44 O9         -6.3020    2.0120    0.9960 o         1 MOL     -0.698960
     45 H17        -7.9350    0.6420    3.7880 hn        1 MOL      0.338873
     46 H18        -7.5120    2.7640    3.8300 h1        1 MOL      0.125549
     47 H19        -8.6310    3.1730    2.5450 h1        1 MOL      0.125549
     48 N5         -5.9650    3.9200    2.1060 n         1 MOL     -0.660259
     49 C16        -4.9910    4.4920    1.1260 c3        1 MOL      0.103475
     50 C17        -3.6630    3.7300    1.1000 c         1 MOL      0.667604
     51 O10        -2.7590    4.1090    0.2870 o         1 MOL     -0.573626
     52 C18        -4.8520    5.9810    1.4340 c3        1 MOL     -0.313808
     53 C19        -6.1590    6.7630    1.3320 c         1 MOL      0.796902
     54 N6         -6.4480    7.6620    2.1960 n         1 MOL     -0.827590
     55 O11        -6.8640    6.6150    0.3680 o         1 MOL     -0.580944
     56 H20        -6.2350    4.4550    2.9270 hn        1 MOL      0.298420
     57 H21        -5.2990    4.4910    0.0890 h1        1 MOL      0.110415
     58 H22        -4.1900    6.4240    0.6920 hc        1 MOL      0.086828
     59 H23        -4.3430    6.0980    2.3920 hc        1 MOL      0.086828
     60 H24        -5.7140    8.0210    2.7820 hn        1 MOL      0.368808
     61 H25        -7.3140    8.1830    2.1940 hn        1 MOL      0.368808
     62 N7         -3.3470    2.8270    1.9800 n         1 MOL     -0.523312
     63 C20        -2.0420    2.1740    2.1000 c3        1 MOL     -0.017881
     64 C21        -1.7940    1.0500    0.9500 c         1 MOL      0.674235
     65 O12        -2.7070    0.7720    0.1460 o         1 MOL     -0.586236
     66 H26        -4.1450    2.4960    2.5060 hn        1 MOL      0.339541
     67 H27        -2.0820    1.6430    3.0480 h1        1 MOL      0.094634
     68 H28        -1.3030    2.9740    2.1230 h1        1 MOL      0.094634
     69 N8         -0.6160    0.4090    0.8690 n         1 MOL     -0.549026
     70 C22         0.4460    0.6550    1.7850 c3        1 MOL     -0.032437
     71 C23         1.8410    0.6460    1.0860 c         1 MOL      0.631604
     72 O13         2.6690    1.5190    1.4460 o         1 MOL     -0.549895
     73 C24         0.4600   -0.2530    3.0600 c3        1 MOL      0.210370
     74 C25         1.4010    0.3410    4.1460 c3        1 MOL     -0.329502
     75 O14        -0.7920   -0.3510    3.6640 oh        1 MOL     -0.555920
     76 H29        -0.5370   -0.3240    0.1820 hn        1 MOL      0.318225
     77 H30         0.4740    1.7040    2.0920 h1        1 MOL      0.072260
     78 H31         0.8260   -1.2630    2.8810 h1        1 MOL      0.046474
     79 H32        -1.3290   -0.9820    3.1640 ho        1 MOL      0.369296
     80 H33         1.3760    1.4250    4.2640 hc        1 MOL      0.103562
     81 H34         1.1240   -0.0430    5.1290 hc        1 MOL      0.103562
     82 H35         2.4290    0.1070    3.8470 hc        1 MOL      0.103562
     83 N9          2.1710   -0.2610    0.1520 n         1 MOL     -0.481105
     84 C26         3.4780   -0.3220   -0.3820 c3        1 MOL     -0.153056
     85 C27         3.5320    0.4910   -1.7420 c         1 MOL      0.642326
     86 O15         2.7490    0.2930   -2.6400 o         1 MOL     -0.588974
     87 C28         3.9190   -1.7980   -0.4980 c3        1 MOL     -0.093375
     88 C29         3.6650   -2.7380    0.7600 c3        1 MOL      0.133054
     89 C30         5.3870   -1.8140   -0.9260 c3        1 MOL      0.020745
     90 C31         3.9290   -4.2070    0.4410 c3        1 MOL     -0.221168
     91 H36         1.5100   -0.9050   -0.2510 hn        1 MOL      0.313763
     92 H37         4.2010    0.0690    0.3470 h1        1 MOL      0.159584
     93 H38         3.3760   -2.1980   -1.3550 hc        1 MOL      0.029299
     94 H39         2.6910   -2.6710    1.2390 hc        1 MOL     -0.004595
     95 H40         4.4310   -2.5060    1.4990 hc        1 MOL     -0.004595
     96 H41         6.0290   -1.6320   -0.0620 hc        1 MOL      0.009856
     97 H42         5.6620   -2.7300   -1.4510 hc        1 MOL      0.009856
     98 H43         5.5950   -1.0050   -1.6320 hc        1 MOL      0.009856
     99 H44         3.8000   -4.7850    1.3540 hc        1 MOL      0.045238
    100 H45         3.2080   -4.5380   -0.3040 hc        1 MOL      0.045238
    101 H46         4.9550   -4.4040    0.1350 hc        1 MOL      0.045238
    102 N10         4.3840    1.5150   -1.8630 n         1 MOL     -0.437392
    103 C32         5.3150    2.0400   -0.8920 c3        1 MOL      0.221344
    104 C33         6.8240    1.8480   -1.3700 c         1 MOL      0.454008
    105 O16         7.0200    1.4700   -2.5630 o         1 MOL     -0.525937
    106 C34         4.9660    3.5070   -0.6240 c3        1 MOL     -0.050430
    107 C35         4.7290    4.4920   -1.8380 c         1 MOL      0.667169
    108 O17         4.3760    4.0280   -2.9660 o         1 MOL     -0.702337
    109 O18         4.6900    5.7210   -1.6400 o         1 MOL     -0.702337
    110 H47         4.3750    2.0230   -2.7330 hn        1 MOL      0.288576
    111 H48         5.2200    1.5890    0.1000 h1        1 MOL      0.004968
    112 H49         5.6830    3.9280    0.0660 hc        1 MOL     -0.024076
    113 H50         4.0330    3.5420   -0.0560 hc        1 MOL     -0.024076
    114 N11         7.8850    2.2510   -0.6450 n         1 MOL     -0.692196
    115 C36         9.2950    1.8900   -0.8750 c3        1 MOL      0.456021
    116 C37        10.1540    1.9880    0.4190 c         1 MOL      0.294265
    117 O19        10.1020    2.9530    1.1010 o         1 MOL     -0.491603
    118 C38         9.8940    2.7010   -2.0460 c3        1 MOL     -0.065700
    119 C39        11.0520    2.1050   -2.7160 ca        1 MOL      0.078917
    120 C40        12.3390    2.3530   -2.2880 ca        1 MOL     -0.217304
    121 C41        10.7920    1.0100   -3.6220 ca        1 MOL     -0.217304
    122 C42        13.4440    1.5700   -2.7000 ca        1 MOL     -0.067011
    123 C43        11.9040    0.2800   -4.1710 ca        1 MOL     -0.067011
    124 C44        13.1960    0.5900   -3.6680 ca        1 MOL     -0.150918
    125 H51         7.7060    2.8000    0.1890 hn        1 MOL      0.363621
    126 H52         9.3540    0.8900   -1.2980 h1        1 MOL      0.018592
    127 H53        10.2110    3.6820   -1.6770 hc        1 MOL      0.032787
    128 H54         9.1720    2.9520   -2.8140 hc        1 MOL      0.032787
    129 H55        12.4660    3.0520   -1.4690 ha        1 MOL      0.143525
    130 H56         9.7980    0.6960   -3.8790 ha        1 MOL      0.143525
    131 H57        14.4530    1.8120   -2.3970 ha        1 MOL      0.097431
    132 H58        11.7830   -0.5650   -4.8280 ha        1 MOL      0.097431
    133 H59        14.0870    0.1030   -4.0250 ha        1 MOL      0.084476
    134 N12        10.9920    0.9430    0.6970 n         1 MOL     -0.040067
    135 C45        11.0800   -0.3820    0.1030 c3        1 MOL      0.078721
    136 C46         9.8440   -1.3070    0.3840 c         1 MOL      0.343719
    137 O20         8.7240   -0.7760    0.3290 o         1 MOL     -0.471940
    138 C47        12.3690   -0.9240    0.6110 c3        1 MOL     -0.091247
    139 C48        13.1850    0.3260    0.9450 c3        1 MOL     -0.078517
    140 C49        12.1010    1.1720    1.6020 c3        1 MOL     -0.164940
    141 H60        11.2080   -0.1950   -0.9660 h1        1 MOL      0.007543
    142 H61        12.1380   -1.4390    1.5360 hc        1 MOL      0.049886
    143 H62        12.9340   -1.5990   -0.0340 hc        1 MOL      0.049886
    144 H63        13.8980    0.1710    1.7590 hc        1 MOL      0.032298
    145 H64        13.6020    0.7230    0.0250 hc        1 MOL      0.032298
    146 H65        11.9060    0.8050    2.6170 h1        1 MOL      0.102226
    147 H66        12.3450    2.2360    1.6240 h1        1 MOL      0.102226
    148 N13         9.9770   -2.5640    0.8870 n         1 MOL     -0.388835
    149 C50         8.9130   -3.4810    1.2020 c3        1 MOL      0.375502
    150 C51         9.1900   -4.8040    0.5710 c         1 MOL      0.380089
    151 O21         9.5430   -5.8080    1.2140 o         1 MOL     -0.524325
    152 C52         8.7660   -3.6210    2.7440 c3        1 MOL     -0.165221
    153 C53         7.3680   -4.2260    3.1230 c3        1 MOL     -0.303425
    154 C54         7.1910   -4.4520    4.6390 c         1 MOL      0.723825
    155 O22         6.8200   -5.5690    5.1220 o         1 MOL     -0.735824
    156 O23         7.3300   -3.4090    5.3590 o         1 MOL     -0.735824
    157 H67        10.9040   -2.9510    0.9380 hn        1 MOL      0.220616
    158 H68         8.0370   -3.0700    0.7020 h1        1 MOL      0.002040
    159 H69         8.8870   -2.6150    3.1510 hc        1 MOL      0.068158
    160 H70         9.6000   -4.1360    3.2360 hc        1 MOL      0.068158
    161 H71         7.1110   -5.1230    2.5500 hc        1 MOL      0.074153
    162 H72         6.5830   -3.5640    2.7710 hc        1 MOL      0.074153
    163 N14         9.1910   -4.9400   -0.7910 n         1 MOL     -0.412127
    164 C55         9.0890   -3.9320   -1.8710 c3        1 MOL     -0.035719
    165 H73         8.5960   -4.3760   -2.7360 h1        1 MOL      0.055551
    166 H74         8.5090   -3.0790   -1.5190 h1        1 MOL      0.055551
    167 H75        10.0880   -3.6010   -2.1540 h1        1 MOL      0.055551
    168 H76         9.2660   -5.8990   -1.1110 hn        1 MOL      0.277215
    169 Ca1        -7.2020    0.8340   -1.3290 Ca        1 MOL      1.753376
    170 O24        -7.3030    1.0350   -3.9830 oh        1 MOL     -0.845542
    171 H77        -7.8920    0.5490   -4.5650 ho        1 MOL      0.422329
    172 H78        -6.7010    1.4700   -4.5770 ho        1 MOL      0.422329
    173 O25        -8.5240    3.1560   -1.0020 oh        1 MOL     -0.845542
    174 H79        -8.9460    3.6750   -1.6980 ho        1 MOL      0.422329
    175 H80        -8.9320    3.4720   -0.1970 ho        1 MOL      0.422329
    176 O26        -5.5220    2.8440   -2.1450 oh        1 MOL     -0.845542
    177 H81        -5.7350    3.7710   -2.2990 ho        1 MOL      0.422329
    178 H82        -4.7080    2.7100   -2.6200 ho        1 MOL      0.422329
    179 O27        -4.6560   -0.0320   -1.5320 oh        1 MOL     -0.845542
    180 H83        -3.9390    0.5710   -1.6920 ho        1 MOL      0.422329
    181 H84        -4.2280   -0.8800   -1.3780 ho        1 MOL      0.422329
@<TRIPOS>BOND
     1    1    2 1   
     2    1    4 1   
     3    1    5 1   
     4    1    6 1   
     5    2    3 2   
     6    2    7 1   
     7    7    8 1   
     8    7   15 1   
     9    8    9 1   
    10    8   11 1   
    11    8   16 1   
    12    9   10 2   
    13    9   19 1   
    14   11   12 1   
    15   11   17 1   
    16   11   18 1   
    17   12   13 1   
    18   12   14 1   
    19   19   20 1   
    20   19   24 1   
    21   20   21 1   
    22   20   23 1   
    23   20   25 1   
    24   21   22 2   
    25   21   29 1   
    26   23   26 1   
    27   23   27 1   
    28   23   28 1   
    29   29   30 1   
    30   29   37 1   
    31   30   31 1   
    32   30   33 1   
    33   30   38 1   
    34   31   32 2   
    35   31   41 1   
    36   33   34 1   
    37   33   39 1   
    38   33   40 1   
    39   34   35 1   
    40   34   36 1   
    41   41   42 1   
    42   41   45 1   
    43   42   43 1   
    44   42   46 1   
    45   42   47 1   
    46   43   44 2   
    47   43   48 1   
    48   48   49 1   
    49   48   56 1   
    50   49   50 1   
    51   49   52 1   
    52   49   57 1   
    53   50   51 2   
    54   50   62 1   
    55   52   53 1   
    56   52   58 1   
    57   52   59 1   
    58   53   54 1   
    59   53   55 2   
    60   54   60 1   
    61   54   61 1   
    62   62   63 1   
    63   62   66 1   
    64   63   64 1   
    65   63   67 1   
    66   63   68 1   
    67   64   65 2   
    68   64   69 1   
    69   69   70 1   
    70   69   76 1   
    71   70   71 1   
    72   70   73 1   
    73   70   77 1   
    74   71   72 2   
    75   71   83 1   
    76   73   74 1   
    77   73   75 1   
    78   73   78 1   
    79   74   80 1   
    80   74   81 1   
    81   74   82 1   
    82   75   79 1   
    83   83   84 1   
    84   83   91 1   
    85   84   85 1   
    86   84   87 1   
    87   84   92 1   
    88   85   86 2   
    89   85  102 1   
    90   87   88 1   
    91   87   89 1   
    92   87   93 1   
    93   88   90 1   
    94   88   94 1   
    95   88   95 1   
    96   89   96 1   
    97   89   97 1   
    98   89   98 1   
    99   90   99 1   
   100   90  100 1   
   101   90  101 1   
   102  102  103 1   
   103  102  110 1   
   104  103  104 1   
   105  103  106 1   
   106  103  111 1   
   107  104  105 2   
   108  104  114 1   
   109  106  107 1   
   110  106  112 1   
   111  106  113 1   
   112  107  108 1   
   113  107  109 1   
   114  114  115 1   
   115  114  125 1   
   116  115  116 1   
   117  115  118 1   
   118  115  126 1   
   119  116  117 2   
   120  116  134 1   
   121  118  119 1   
   122  118  127 1   
   123  118  128 1   
   124  119  120 ar  
   125  119  121 ar  
   126  120  122 ar  
   127  120  129 1   
   128  121  123 ar  
   129  121  130 1   
   130  122  124 ar  
   131  122  131 1   
   132  123  124 ar  
   133  123  132 1   
   134  124  133 1   
   135  134  135 1   
   136  134  140 1   
   137  135  136 1   
   138  135  138 1   
   139  135  141 1   
   140  136  137 2   
   141  136  148 1   
   142  138  139 1   
   143  138  142 1   
   144  138  143 1   
   145  139  140 1   
   146  139  144 1   
   147  139  145 1   
   148  140  146 1   
   149  140  147 1   
   150  148  149 1   
   151  148  157 1   
   152  149  150 1   
   153  149  152 1   
   154  149  158 1   
   155  150  151 2   
   156  150  163 1   
   157  152  153 1   
   158  152  159 1   
   159  152  160 1   
   160  153  154 1   
   161  153  161 1   
   162  153  162 1   
   163  154  155 1   
   164  154  156 1   
   165  163  164 1   
   166  163  168 1   
   167  164  165 1   
   168  164  166 1   
   169  164  167 1   
   170  170  171 1   
   171  170  172 1   
   172  173  174 1   
   173  173  175 1   
   174  176  177 1   
   175  176  178 1   
   176  179  180 1   
   177  179  181 1   
@<TRIPOS>SUBSTRUCTURE
     1 MOL         1 TEMP              0 ****  ****    0 ROOT
