@<TRIPOS>MOLECULE
MOL
  192   187     1     0     0
SMALL
resp


@<TRIPOS>ATOM
      1 C1          4.3630   -0.8970    5.2530 c3        1 MOL     -0.496624
      2 C2          4.6760   -0.3740    3.8460 c         1 MOL      0.728289
      3 O1          3.9050    0.3910    3.1660 o         1 MOL     -0.555627
      4 H1          4.0340   -0.0700    5.8830 hc        1 MOL      0.141409
      5 H2          3.5730   -1.6460    5.1950 hc        1 MOL      0.141409
      6 H3          5.2600   -1.3450    5.6820 hc        1 MOL      0.141409
      7 N1          5.9260   -0.7160    3.4280 n         1 MOL     -0.710195
      8 C3          6.4590   -0.2410    2.1380 c3        1 MOL      0.290556
      9 C4          6.6260   -1.3050    1.0120 c         1 MOL      0.413145
     10 O2          7.0210   -0.9390   -0.0890 o         1 MOL     -0.558676
     11 C5          7.5550    0.9020    2.2610 c3        1 MOL     -0.075509
     12 C6          7.2730    1.8510    3.4570 c         1 MOL      0.705760
     13 O3          7.0350    3.0360    3.1660 o         1 MOL     -0.673053
     14 O4          7.5720    1.4320    4.6070 o         1 MOL     -0.673053
     15 H4          6.5570   -1.1410    4.0950 hn        1 MOL      0.335925
     16 H5          5.5760    0.2490    1.7260 h1        1 MOL     -0.060863
     17 H6          7.6580    1.3220    1.2580 hc        1 MOL     -0.001534
     18 H7          8.4990    0.3640    2.4120 hc        1 MOL     -0.001534
     19 N2          6.1770   -2.5610    1.1120 n         1 MOL     -0.499255
     20 C7          5.9340   -3.6010    0.0200 c3        1 MOL      0.174659
     21 C8          4.5650   -4.2810    0.0540 c         1 MOL      0.488982
     22 O5          4.4650   -5.4630   -0.1500 o         1 MOL     -0.558428
     23 C9          7.0390   -4.6040   -0.0460 c3        1 MOL      0.040973
     24 C10         8.4200   -4.1680   -0.5950 c3        1 MOL     -0.130477
     25 C11         9.4080   -5.2610   -0.7000 c3        1 MOL     -0.110611
     26 C12         9.2240   -6.1950   -2.0090 c3        1 MOL      0.020134
     27 N3         10.4400   -7.0330   -2.3330 n4        1 MOL     -0.313854
     28 H8          5.8900   -2.8140    2.0410 hn        1 MOL      0.263366
     29 H9          5.8640   -3.0460   -0.9160 h1        1 MOL      0.078627
     30 H10         6.7920   -5.5030   -0.6120 hc        1 MOL     -0.002495
     31 H11         7.0760   -4.9670    0.9840 hc        1 MOL     -0.002495
     32 H12         8.8310   -3.3900    0.0560 hc        1 MOL      0.085095
     33 H13         8.2150   -3.9180   -1.6310 hc        1 MOL      0.085095
     34 H14         9.3820   -5.9270    0.1660 hc        1 MOL      0.056302
     35 H15        10.4230   -4.8440   -0.6800 hc        1 MOL      0.056302
     36 H16         8.8220   -5.6830   -2.8890 hx        1 MOL      0.100939
     37 H17         8.3990   -6.8530   -1.7410 hx        1 MOL      0.100939
     38 H18        10.1860   -7.8900   -2.7950 hn        1 MOL      0.297410
     39 H19        11.1960   -6.5850   -2.8180 hn        1 MOL      0.297410
     40 H20        10.7990   -7.2720   -1.4130 hn        1 MOL      0.297410
     41 N4          3.5060   -3.4920    0.2870 n         1 MOL     -0.535310
     42 C13         3.3060   -2.1200    0.7520 c3        1 MOL      0.162273
     43 C14         3.7170   -1.1990   -0.4190 c         1 MOL      0.497741
     44 O6          3.8760   -1.5440   -1.6240 o         1 MOL     -0.539040
     45 C15         1.9000   -1.8950    1.1960 c3        1 MOL     -0.174760
     46 C16         0.7570   -2.5580    0.3850 c         1 MOL      0.726705
     47 O7         -0.0460   -1.6990   -0.0980 o         1 MOL     -0.677767
     48 O8          0.7190   -3.7480    0.2070 o         1 MOL     -0.677767
     49 H21         2.6480   -4.0050    0.1320 hn        1 MOL      0.353835
     50 H22         3.8440   -1.9750    1.6820 h1        1 MOL      0.037693
     51 H23         1.7860   -0.8150    1.1890 hc        1 MOL     -0.000643
     52 H24         1.7580   -2.3410    2.1810 hc        1 MOL     -0.000643
     53 N5          3.8530    0.1120   -0.0590 n         1 MOL     -0.030135
     54 C17         4.2820    1.1830   -0.9630 c3        1 MOL     -0.400701
     55 C18         3.0830    1.6880   -1.8370 c         1 MOL      0.547018
     56 O9          1.9190    1.3000   -1.6470 o         1 MOL     -0.687020
     57 H25         3.4260    0.4300    0.7960 hn        1 MOL      0.276014
     58 H26         5.1840    0.8990   -1.5090 h1        1 MOL      0.181763
     59 H27         4.5460    1.9930   -0.2830 h1        1 MOL      0.181763
     60 N6          3.3350    2.6870   -2.7040 n         1 MOL     -0.433198
     61 C19         2.4270    3.4480   -3.5080 c3        1 MOL      0.439319
     62 C20         2.9080    4.9330   -3.7050 c         1 MOL      0.410926
     63 O10         4.1140    5.1180   -3.7580 o         1 MOL     -0.529638
     64 C21         2.2240    2.7060   -4.8120 c3        1 MOL     -0.345812
     65 C22         1.6390    1.3100   -4.7170 c         1 MOL      0.707319
     66 O11         0.6020    1.1140   -4.0440 o         1 MOL     -0.685648
     67 O12         2.2160    0.3260   -5.3040 o         1 MOL     -0.685648
     68 H28         4.2720    3.0670   -2.8050 hn        1 MOL      0.253005
     69 H29         1.4640    3.5590   -3.0030 h1        1 MOL     -0.058224
     70 H30         3.2160    2.5520   -5.2370 hc        1 MOL      0.074594
     71 H31         1.7060    3.3520   -5.5190 hc        1 MOL      0.074594
     72 N7          2.1050    5.9440   -4.0640 n         1 MOL     -0.400916
     73 C23         0.6500    5.8970   -4.1730 c3        1 MOL     -0.146656
     74 C24        -0.1030    6.0100   -2.9030 c         1 MOL      0.593935
     75 O13         0.2380    6.8440   -2.0420 o         1 MOL     -0.498799
     76 H32         2.6080    6.7940   -4.2550 hn        1 MOL      0.315382
     77 H33         0.3460    5.0090   -4.7340 h1        1 MOL      0.102923
     78 H34         0.3500    6.7130   -4.8350 h1        1 MOL      0.102923
     79 N8         -1.2290    5.2730   -2.7100 n         1 MOL     -0.690974
     80 C25        -1.7600    5.0380   -1.3680 c3        1 MOL      0.280929
     81 C26        -1.0360    4.0210   -0.5440 c         1 MOL      0.848876
     82 O14        -0.6440    3.0090   -1.0700 o         1 MOL     -0.741328
     83 C27        -3.2240    4.5830   -1.3030 c3        1 MOL      0.294219
     84 C28        -4.1670    5.3700   -2.2290 c3        1 MOL     -0.334180
     85 O15        -3.8350    4.8400   -0.0870 oh        1 MOL     -0.651157
     86 H35        -1.6290    4.8440   -3.5310 hn        1 MOL      0.360340
     87 H36        -1.6440    5.9440   -0.7740 h1        1 MOL     -0.030821
     88 H37        -3.3320    3.5410   -1.5960 h1        1 MOL      0.031549
     89 H38        -4.2430    5.6810   -0.3030 ho        1 MOL      0.400372
     90 H39        -3.7750    5.2500   -3.2410 hc        1 MOL      0.086624
     91 H40        -5.1780    4.9560   -2.2080 hc        1 MOL      0.086624
     92 H41        -4.1550    6.3940   -1.8650 hc        1 MOL      0.086624
     93 N9         -1.0310    4.1590    0.8100 n         1 MOL     -0.583139
     94 C29        -0.1770    3.4080    1.7610 c3        1 MOL      0.090479
     95 C30        -0.5100    1.9160    1.8210 c         1 MOL      0.402651
     96 O16        -0.1130    1.1570    0.9440 o         1 MOL     -0.576619
     97 C31         1.3480    3.6190    1.4880 c3        1 MOL     -0.233240
     98 C32         1.8390    5.1010    1.2310 c3        1 MOL      0.050258
     99 C33         2.2160    3.1250    2.6550 c3        1 MOL     -0.584693
    100 C34         2.8790    5.1530    0.1420 c3        1 MOL     -0.111031
    101 H42        -1.5700    4.8820    1.2570 hn        1 MOL      0.279808
    102 H43        -0.4610    3.8310    2.7300 h1        1 MOL      0.092745
    103 H44         1.6050    3.0560    0.5950 hc        1 MOL      0.277412
    104 H45         2.1660    5.5620    2.1590 hc        1 MOL      0.020362
    105 H46         1.0240    5.7420    0.9090 hc        1 MOL      0.020362
    106 H47         3.2110    3.5770    2.6560 hc        1 MOL      0.194877
    107 H48         1.7020    3.2610    3.6070 hc        1 MOL      0.194877
    108 H49         2.2470    2.0540    2.4520 hc        1 MOL      0.194877
    109 H50         3.8810    5.1530    0.5680 hc        1 MOL      0.029008
    110 H51         2.8370    4.5080   -0.7350 hc        1 MOL      0.029008
    111 H52         2.6290    6.1160   -0.2900 hc        1 MOL      0.029008
    112 N10        -1.0030    1.4360    2.9420 n         1 MOL     -0.358681
    113 C35        -1.0590   -0.0190    3.2530 c3        1 MOL     -0.176466
    114 C36        -2.4720   -0.5530    3.4870 c         1 MOL      0.431396
    115 O17        -2.6800   -1.7160    3.9100 o         1 MOL     -0.511826
    116 C37        -0.1340   -0.3540    4.3780 c3        1 MOL      0.502743
    117 C38        -0.6080    0.2830    5.6600 c3        1 MOL     -0.514065
    118 O18         1.1450    0.1430    4.3890 oh        1 MOL     -0.472135
    119 H53        -1.2290    2.1470    3.6190 hn        1 MOL      0.256431
    120 H54        -0.6480   -0.6140    2.4420 h1        1 MOL      0.151875
    121 H55        -0.0280   -1.4430    4.4830 h1        1 MOL     -0.005785
    122 H56         1.2810    0.1750    3.4370 ho        1 MOL      0.245145
    123 H57        -0.6700    1.3650    5.5380 hc        1 MOL      0.126196
    124 H58        -1.6510    0.0230    5.8430 hc        1 MOL      0.126196
    125 H59        -0.0290    0.0470    6.5500 hc        1 MOL      0.126196
    126 N11        -3.4740    0.3350    3.2300 n         1 MOL     -0.155413
    127 C39        -4.8940    0.0810    3.6400 c3        1 MOL     -0.034293
    128 C40        -5.7690   -0.1730    2.3770 c         1 MOL      0.573876
    129 O19        -6.3830    0.6600    1.7180 o         1 MOL     -0.485121
    130 C41        -5.4530    1.2370    4.5470 c3        1 MOL      0.141930
    131 C42        -4.7330    1.1080    5.8830 c3        1 MOL     -0.171807
    132 O20        -5.1490    2.5470    4.2060 oh        1 MOL     -0.646115
    133 H60        -3.2320    1.1610    2.7100 hn        1 MOL      0.243088
    134 H61        -4.8220   -0.8840    4.1370 h1        1 MOL      0.088575
    135 H62        -6.5250    1.1510    4.7220 h1        1 MOL      0.066928
    136 H63        -5.4450    3.1620    4.8880 ho        1 MOL      0.448146
    137 H64        -3.7240    1.5320    5.9130 hc        1 MOL      0.037757
    138 H65        -5.2070    1.7350    6.6400 hc        1 MOL      0.037757
    139 H66        -4.8020    0.0770    6.2390 hc        1 MOL      0.037757
    140 N12        -5.8490   -1.4970    2.1020 n         1 MOL     -0.683211
    141 C43        -6.3500   -2.0670    0.8050 c3        1 MOL      0.289046
    142 C44        -5.5030   -1.7560   -0.3890 c         1 MOL      0.595343
    143 O21        -4.9600   -0.6410   -0.4920 o         1 MOL     -0.586146
    144 C45        -7.8480   -1.8370    0.5550 c3        1 MOL     -0.573908
    145 C46        -8.6690   -2.3470    1.7440 c3        1 MOL      0.060863
    146 C47       -10.1080   -2.2530    1.2250 c3        1 MOL      0.027020
    147 C48       -10.9820   -2.5180    2.3200 c3        1 MOL      0.128250
    148 N13       -12.4320   -2.5290    1.8620 n4        1 MOL     -0.256110
    149 H67        -5.4010   -2.1170    2.7540 hn        1 MOL      0.338605
    150 H68        -6.3050   -3.1490    0.9560 h1        1 MOL      0.025878
    151 H69        -8.0650   -2.3940   -0.3510 hc        1 MOL      0.186710
    152 H70        -8.1180   -0.7870    0.4310 hc        1 MOL      0.186710
    153 H71        -8.4320   -1.7400    2.6160 hc        1 MOL      0.042097
    154 H72        -8.4620   -3.4060    1.9220 hc        1 MOL      0.042097
    155 H73       -10.2740   -2.8960    0.3570 hc        1 MOL      0.024071
    156 H74       -10.2650   -1.2170    0.8890 hc        1 MOL      0.024071
    157 H75       -10.9170   -1.7340    3.0710 hx        1 MOL      0.028457
    158 H76       -10.6140   -3.4050    2.8410 hx        1 MOL      0.028457
    159 H77       -12.5800   -1.7920    1.1870 hn        1 MOL      0.234824
    160 H78       -12.7200   -3.4370    1.5230 hn        1 MOL      0.234824
    161 H79       -12.9590   -2.2900    2.6810 hn        1 MOL      0.234824
    162 N14        -5.3640   -2.7250   -1.2780 n         1 MOL     -0.521060
    163 C49        -4.4890   -2.6500   -2.4200 c3        1 MOL      0.275056
    164 C50        -2.9600   -2.6910   -2.0900 c         1 MOL      0.438578
    165 O22        -2.1930   -1.7020   -2.2340 o         1 MOL     -0.630823
    166 C51        -4.9360   -3.6340   -3.5260 c3        1 MOL      0.171407
    167 C52        -6.4230   -3.3550   -3.9830 c3        1 MOL     -0.328818
    168 C53        -6.8280   -4.3850   -5.0080 c         1 MOL      0.734339
    169 O23        -6.2900   -4.4540   -6.0930 o         1 MOL     -0.666979
    170 O24        -7.7690   -5.1810   -4.7220 o         1 MOL     -0.666979
    171 H80        -5.8830   -3.5820   -1.1900 hn        1 MOL      0.302358
    172 H81        -4.6960   -1.7380   -2.9940 h1        1 MOL     -0.003748
    173 H82        -4.9530   -4.6550   -3.1540 hc        1 MOL     -0.007925
    174 H83        -4.2450   -3.5330   -4.3700 hc        1 MOL     -0.007925
    175 H84        -6.4650   -2.3600   -4.4130 hc        1 MOL      0.038743
    176 H85        -7.1010   -3.3870   -3.1310 hc        1 MOL      0.038743
    177 N15        -2.4010   -3.7640   -1.5270 n         1 MOL     -0.376319
    178 C54        -2.9480   -5.0900   -1.2710 c3        1 MOL     -0.047713
    179 H86        -3.6320   -5.0430   -0.4230 h1        1 MOL      0.047390
    180 H87        -3.4870   -5.4380   -2.1530 h1        1 MOL      0.047390
    181 H88        -2.1360   -5.7810   -1.0450 h1        1 MOL      0.047390
    182 H89        -1.4120   -3.7930   -1.2860 hn        1 MOL      0.354489
    183 Ca1        -0.5930    0.3920   -1.5470 Ca        1 MOL      1.849301
    184 O25        -2.8240    0.8090   -0.1050 oh        1 MOL     -0.924111
    185 H90        -3.5940    0.3470   -0.4290 ho        1 MOL      0.441502
    186 H91        -3.1700    1.4140    0.5510 ho        1 MOL      0.441502
    187 O26         1.4200   -1.3820   -2.7660 oh        1 MOL     -0.924111
    188 H92         1.5800   -1.0230   -3.6370 ho        1 MOL      0.441502
    189 H93         2.2640   -1.3320   -2.3200 ho        1 MOL      0.441502
    190 O27        -2.4080    1.3390   -3.3370 oh        1 MOL     -0.924111
    191 H94        -3.2730    1.6170   -3.0200 ho        1 MOL      0.441502
    192 H95        -2.6050    0.8530   -4.1340 ho        1 MOL      0.441502
@<TRIPOS>BOND
     1    1    2 1   
     2    1    4 1   
     3    1    5 1   
     4    1    6 1   
     5    2    3 2   
     6    2    7 1   
     7    7    8 1   
     8    7   15 1   
     9    8    9 1   
    10    8   11 1   
    11    8   16 1   
    12    9   10 2   
    13    9   19 1   
    14   11   12 1   
    15   11   17 1   
    16   11   18 1   
    17   12   13 1   
    18   12   14 1   
    19   19   20 1   
    20   19   28 1   
    21   20   21 1   
    22   20   23 1   
    23   20   29 1   
    24   21   22 2   
    25   21   41 1   
    26   23   24 1   
    27   23   30 1   
    28   23   31 1   
    29   24   25 1   
    30   24   32 1   
    31   24   33 1   
    32   25   26 1   
    33   25   34 1   
    34   25   35 1   
    35   26   27 1   
    36   26   36 1   
    37   26   37 1   
    38   27   38 1   
    39   27   39 1   
    40   27   40 1   
    41   41   42 1   
    42   41   49 1   
    43   42   43 1   
    44   42   45 1   
    45   42   50 1   
    46   43   44 2   
    47   43   53 1   
    48   45   46 1   
    49   45   51 1   
    50   45   52 1   
    51   46   47 1   
    52   46   48 1   
    53   53   54 1   
    54   53   57 1   
    55   54   55 1   
    56   54   58 1   
    57   54   59 1   
    58   55   56 2   
    59   55   60 1   
    60   60   61 1   
    61   60   68 1   
    62   61   62 1   
    63   61   64 1   
    64   61   69 1   
    65   62   63 2   
    66   62   72 1   
    67   64   65 1   
    68   64   70 1   
    69   64   71 1   
    70   65   66 1   
    71   65   67 1   
    72   72   73 1   
    73   72   76 1   
    74   73   74 1   
    75   73   77 1   
    76   73   78 1   
    77   74   75 2   
    78   74   79 1   
    79   79   80 1   
    80   79   86 1   
    81   80   81 1   
    82   80   83 1   
    83   80   87 1   
    84   81   82 2   
    85   81   93 1   
    86   83   84 1   
    87   83   85 1   
    88   83   88 1   
    89   84   90 1   
    90   84   91 1   
    91   84   92 1   
    92   85   89 1   
    93   93   94 1   
    94   93  101 1   
    95   94   95 1   
    96   94   97 1   
    97   94  102 1   
    98   95   96 2   
    99   95  112 1   
   100   97   98 1   
   101   97   99 1   
   102   97  103 1   
   103   98  100 1   
   104   98  104 1   
   105   98  105 1   
   106   99  106 1   
   107   99  107 1   
   108   99  108 1   
   109  100  109 1   
   110  100  110 1   
   111  100  111 1   
   112  112  113 1   
   113  112  119 1   
   114  113  114 1   
   115  113  116 1   
   116  113  120 1   
   117  114  115 2   
   118  114  126 1   
   119  116  117 1   
   120  116  118 1   
   121  116  121 1   
   122  117  123 1   
   123  117  124 1   
   124  117  125 1   
   125  118  122 1   
   126  126  127 1   
   127  126  133 1   
   128  127  128 1   
   129  127  130 1   
   130  127  134 1   
   131  128  129 2   
   132  128  140 1   
   133  130  131 1   
   134  130  132 1   
   135  130  135 1   
   136  131  137 1   
   137  131  138 1   
   138  131  139 1   
   139  132  136 1   
   140  140  141 1   
   141  140  149 1   
   142  141  142 1   
   143  141  144 1   
   144  141  150 1   
   145  142  143 2   
   146  142  162 1   
   147  144  145 1   
   148  144  151 1   
   149  144  152 1   
   150  145  146 1   
   151  145  153 1   
   152  145  154 1   
   153  146  147 1   
   154  146  155 1   
   155  146  156 1   
   156  147  148 1   
   157  147  157 1   
   158  147  158 1   
   159  148  159 1   
   160  148  160 1   
   161  148  161 1   
   162  162  163 1   
   163  162  171 1   
   164  163  164 1   
   165  163  166 1   
   166  163  172 1   
   167  164  165 2   
   168  164  177 1   
   169  166  167 1   
   170  166  173 1   
   171  166  174 1   
   172  167  168 1   
   173  167  175 1   
   174  167  176 1   
   175  168  169 1   
   176  168  170 1   
   177  177  178 1   
   178  177  182 1   
   179  178  179 1   
   180  178  180 1   
   181  178  181 1   
   182  184  185 1   
   183  184  186 1   
   184  187  188 1   
   185  187  189 1   
   186  190  191 1   
   187  190  192 1   
@<TRIPOS>SUBSTRUCTURE
     1 MOL         1 TEMP              0 ****  ****    0 ROOT
