@<TRIPOS>MOLECULE
MOL
  192   187     1     0     0
SMALL
resp


@<TRIPOS>ATOM
      1 C1         -1.1970    7.9110    2.6740 c3        1 MOL     -0.340152
      2 C2         -1.7850    6.4650    2.4630 c         1 MOL      0.657236
      3 O1         -1.9120    5.7550    3.3480 o         1 MOL     -0.514678
      4 H1         -0.6550    8.2160    1.7790 hc        1 MOL      0.079192
      5 H2         -2.0110    8.6110    2.8610 hc        1 MOL      0.079192
      6 H3         -0.5180    7.9070    3.5260 hc        1 MOL      0.079192
      7 N1         -2.0940    6.1170    1.1900 n         1 MOL     -0.478819
      8 C3         -2.6150    4.7940    0.8170 c3        1 MOL     -0.010921
      9 C4         -1.5140    3.7750    0.5610 c         1 MOL      0.467594
     10 O2         -1.7330    2.5150    0.4850 o         1 MOL     -0.534237
     11 C5         -3.3970    5.0420   -0.4570 c3        1 MOL     -0.301473
     12 C6         -2.8210    5.7540   -1.6300 c         1 MOL      0.669973
     13 O3         -3.0620    5.3750   -2.8480 o         1 MOL     -0.683367
     14 O4         -2.1550    6.8100   -1.4570 o         1 MOL     -0.683367
     15 H4         -2.0150    6.7950    0.4530 hn        1 MOL      0.273335
     16 H5         -3.2490    4.4100    1.6140 h1        1 MOL      0.128697
     17 H6         -4.2070    5.6940   -0.1230 hc        1 MOL      0.105951
     18 H7         -3.8760    4.1060   -0.7480 hc        1 MOL      0.105951
     19 N2         -0.2540    4.2520    0.3900 n         1 MOL     -0.275467
     20 C7          0.9220    3.5320   -0.0240 c3        1 MOL      0.044054
     21 C8          1.7990    3.2390    1.2460 c         1 MOL      0.647446
     22 O5          1.8120    3.9430    2.2380 o         1 MOL     -0.564330
     23 C9          1.6470    4.4430   -1.0770 c3        1 MOL     -0.282881
     24 C10         0.6260    4.9170   -2.2160 c3        1 MOL      0.229965
     25 C11         1.4150    5.9860   -3.0630 c3        1 MOL     -0.158566
     26 C12         0.4470    6.3890   -4.2470 c3        1 MOL      0.039596
     27 N3         -0.7620    7.1790   -3.7480 n4        1 MOL     -0.465218
     28 H8         -0.1630    5.2450    0.5730 hn        1 MOL      0.224281
     29 H9          0.6090    2.5880   -0.4680 h1        1 MOL      0.041449
     30 H10         2.5090    3.9950   -1.5670 hc        1 MOL      0.068610
     31 H11         1.9690    5.2980   -0.4820 hc        1 MOL      0.068610
     32 H12        -0.2940    5.3630   -1.8520 hc        1 MOL     -0.001484
     33 H13         0.4240    4.0300   -2.8270 hc        1 MOL     -0.001484
     34 H14         2.3060    5.6200   -3.5540 hc        1 MOL      0.064078
     35 H15         1.5750    6.8590   -2.4270 hc        1 MOL      0.064078
     36 H16         0.1000    5.4710   -4.7330 hx        1 MOL      0.079022
     37 H17         0.9760    6.9430   -5.0240 hx        1 MOL      0.079022
     38 H18        -1.4520    6.6610   -3.2190 hn        1 MOL      0.327429
     39 H19        -0.5170    7.8600   -3.0420 hn        1 MOL      0.327429
     40 H20        -1.3030    7.6210   -4.4780 hn        1 MOL      0.327429
     41 N4          2.6290    2.1970    1.1930 n         1 MOL     -0.602426
     42 C13         2.5680    1.1030    0.2360 c3        1 MOL      0.246051
     43 C14         2.8250    1.3840   -1.2380 c         1 MOL      0.456829
     44 O6          1.9450    1.2950   -2.0590 o         1 MOL     -0.519930
     45 C15         1.3820    0.1910    0.4440 c3        1 MOL     -0.005826
     46 C16         1.1350   -0.2160    1.9030 c         1 MOL      0.767894
     47 O7          0.0280   -0.8470    2.1240 o         1 MOL     -0.764286
     48 O8          1.8880   -0.0080    2.8720 o         1 MOL     -0.764286
     49 H21         3.2540    2.1160    1.9830 hn        1 MOL      0.329771
     50 H22         3.4520    0.5250    0.5040 h1        1 MOL      0.017535
     51 H23         1.4750   -0.6930   -0.1890 hc        1 MOL      0.016140
     52 H24         0.4220    0.5570    0.0890 hc        1 MOL      0.016140
     53 N5          4.0850    1.7050   -1.6360 n         1 MOL     -0.447986
     54 C17         5.3210    1.7640   -0.8480 c3        1 MOL      0.215199
     55 C18         6.5290    2.0480   -1.6560 c         1 MOL      0.489753
     56 O9          6.3910    2.1970   -2.8950 o         1 MOL     -0.591855
     57 H25         4.2690    1.9360   -2.5960 hn        1 MOL      0.283227
     58 H26         5.4510    0.8490   -0.2710 h1        1 MOL     -0.015284
     59 H27         5.1170    2.5150   -0.0810 h1        1 MOL     -0.015284
     60 N6          7.7150    1.9570   -1.1660 n         1 MOL     -0.421686
     61 C19         8.0970    1.5700    0.2710 c3        1 MOL      0.048281
     62 C20         8.3660    0.0090    0.5280 c         1 MOL      0.507283
     63 O10         9.1200   -0.5700   -0.2300 o         1 MOL     -0.468034
     64 C21         9.3470    2.3550    0.5760 c3        1 MOL     -0.179579
     65 C22         9.8660    2.1870    1.9540 c         1 MOL      0.756405
     66 O11         9.0650    1.9390    2.8860 o         1 MOL     -0.736786
     67 O12        11.1020    2.3770    2.1380 o         1 MOL     -0.736786
     68 H28         8.4550    2.1940   -1.7980 hn        1 MOL      0.311347
     69 H29         7.3270    1.9300    0.9620 h1        1 MOL      0.017093
     70 H30         9.1890    3.4300    0.4800 hc        1 MOL      0.036697
     71 H31        10.1370    2.0550   -0.1070 hc        1 MOL      0.036697
     72 N7          7.6220   -0.5770    1.5160 n         1 MOL     -0.396044
     73 C23         7.2460   -2.0270    1.4890 c3        1 MOL     -0.222417
     74 C24         6.2790   -2.4110    0.3380 c         1 MOL      0.685806
     75 O13         6.2080   -1.7440   -0.7010 o         1 MOL     -0.475371
     76 H32         7.1490    0.0750    2.1220 hn        1 MOL      0.280796
     77 H33         6.8000   -2.2430    2.4560 h1        1 MOL      0.128308
     78 H34         8.1400   -2.6320    1.3600 h1        1 MOL      0.128308
     79 N8          5.5550   -3.5640    0.4780 n         1 MOL     -0.617205
     80 C25         4.7980   -4.1590   -0.6180 c3        1 MOL      0.045732
     81 C26         3.5540   -3.3130   -1.0140 c         1 MOL      0.449080
     82 O14         2.7730   -2.9230   -0.0810 o         1 MOL     -0.606903
     83 C27         4.3370   -5.6330   -0.3330 c3        1 MOL      0.528603
     84 C28         5.5300   -6.5400    0.0650 c3        1 MOL     -0.290584
     85 O15         3.7790   -6.1860   -1.5070 oh        1 MOL     -0.670629
     86 H35         5.7170   -4.0480    1.3450 hn        1 MOL      0.268347
     87 H36         5.4530   -4.1350   -1.4880 h1        1 MOL      0.087380
     88 H37         3.6420   -5.6670    0.4910 h1        1 MOL     -0.067574
     89 H38         3.0380   -6.7480   -1.2640 ho        1 MOL      0.417781
     90 H39         6.3890   -6.4570   -0.5890 hc        1 MOL      0.068249
     91 H40         5.7930   -6.3740    1.1170 hc        1 MOL      0.068249
     92 H41         5.2000   -7.5770    0.1050 hc        1 MOL      0.068249
     93 N9          3.3530   -3.0800   -2.2930 n         1 MOL     -0.330726
     94 C29         2.1450   -2.4920   -2.9230 c3        1 MOL      0.004251
     95 C30         0.8940   -3.3940   -2.8430 c         1 MOL      0.472703
     96 O16         0.4410   -3.9860   -3.8110 o         1 MOL     -0.502652
     97 C31         2.4590   -1.9830   -4.3860 c3        1 MOL      0.015367
     98 C32         3.6760   -1.0390   -4.3120 c3        1 MOL      0.184560
     99 C33         1.2680   -1.2590   -4.9590 c3        1 MOL     -0.054902
    100 C34         4.2540   -0.5460   -5.5970 c3        1 MOL     -0.319247
    101 H42         4.0200   -3.4710   -2.9490 hn        1 MOL      0.259856
    102 H43         1.9210   -1.5970   -2.3490 h1        1 MOL      0.080285
    103 H44         2.7020   -2.8610   -4.9780 hc        1 MOL      0.008178
    104 H45         4.4720   -1.4270   -3.6820 hc        1 MOL     -0.016365
    105 H46         3.3600   -0.1860   -3.7190 hc        1 MOL     -0.016365
    106 H47         1.1220   -0.4180   -4.2810 hc        1 MOL      0.013310
    107 H48         1.5000   -0.9070   -5.9680 hc        1 MOL      0.013310
    108 H49         0.3720   -1.8750   -5.0270 hc        1 MOL      0.013310
    109 H50         4.8130   -1.3430   -6.0780 hc        1 MOL      0.074578
    110 H51         3.4550   -0.1170   -6.2130 hc        1 MOL      0.074578
    111 H52         4.9010    0.3190   -5.4430 hc        1 MOL      0.074578
    112 N10         0.2760   -3.4640   -1.6890 n         1 MOL     -0.252725
    113 C35        -0.9170   -4.2800   -1.5440 c3        1 MOL      0.020036
    114 C36        -2.2030   -3.7480   -2.1180 c         1 MOL      0.424661
    115 O17        -2.9400   -4.4090   -2.8580 o         1 MOL     -0.514140
    116 C37        -1.1800   -4.6570   -0.1110 c3        1 MOL      0.312184
    117 C38        -1.3020   -3.5460    0.9180 c3        1 MOL     -0.265256
    118 O18        -0.1110   -5.6120    0.2570 oh        1 MOL     -0.673792
    119 H53         0.6280   -3.0130   -0.8580 hn        1 MOL      0.175694
    120 H54        -0.8300   -5.2530   -2.0280 h1        1 MOL      0.114295
    121 H55        -2.1250   -5.1820   -0.0250 h1        1 MOL      0.050819
    122 H56         0.0750   -5.5630    1.1970 ho        1 MOL      0.382691
    123 H57        -2.1870   -2.9160    0.7840 hc        1 MOL      0.067677
    124 H58        -1.2430   -3.9710    1.9180 hc        1 MOL      0.067677
    125 H59        -0.5270   -2.7810    0.9480 hc        1 MOL      0.067677
    126 N11        -2.5000   -2.4700   -1.9450 n         1 MOL     -0.698782
    127 C39        -3.7330   -1.7440   -2.3970 c3        1 MOL      0.430718
    128 C40        -4.9080   -2.1440   -1.5450 c         1 MOL      0.415187
    129 O19        -5.0240   -3.2300   -0.9790 o         1 MOL     -0.461183
    130 C41        -3.9600   -1.7590   -3.9550 c3        1 MOL      0.230396
    131 C42        -2.6410   -1.3510   -4.7020 c3        1 MOL     -0.241557
    132 O20        -4.9060   -0.8260   -4.3490 oh        1 MOL     -0.743822
    133 H60        -1.9770   -1.9800   -1.2270 hn        1 MOL      0.330794
    134 H61        -3.5110   -0.7240   -2.0890 h1        1 MOL      0.014776
    135 H62        -4.2160   -2.7660   -4.2700 h1        1 MOL      0.064235
    136 H63        -4.8420   -0.5360   -5.2630 ho        1 MOL      0.457949
    137 H64        -2.3390   -0.3320   -4.4590 hc        1 MOL      0.071514
    138 H65        -1.9370   -2.1270   -4.4140 hc        1 MOL      0.071514
    139 H66        -2.6830   -1.3220   -5.7950 hc        1 MOL      0.071514
    140 N12        -5.7900   -1.1130   -1.3570 n         1 MOL     -0.478922
    141 C43        -7.1610   -1.1810   -0.7830 c3        1 MOL     -0.021399
    142 C44        -7.1610   -1.3450    0.7440 c         1 MOL      0.542422
    143 O21        -8.0060   -1.9940    1.3440 o         1 MOL     -0.542423
    144 C45        -7.9130    0.1010   -1.1280 c3        1 MOL     -0.067395
    145 C46        -9.4880   -0.0310   -1.0300 c3        1 MOL      0.057287
    146 C47       -10.0990   -0.7870   -2.2320 c3        1 MOL     -0.422037
    147 C48       -11.4710   -1.3350   -1.9600 c3        1 MOL      0.268161
    148 N13       -12.2220   -1.8960   -3.0830 n4        1 MOL     -0.502503
    149 H67        -5.4760   -0.2910   -1.8500 hn        1 MOL      0.288911
    150 H68        -7.7650   -2.0340   -1.0930 h1        1 MOL      0.105962
    151 H69        -7.7350    0.4210   -2.1560 hc        1 MOL      0.056398
    152 H70        -7.5730    0.9120   -0.4890 hc        1 MOL      0.056398
    153 H71        -9.9370    0.9500   -0.9650 hc        1 MOL      0.030742
    154 H72        -9.6160   -0.6080   -0.1030 hc        1 MOL      0.030742
    155 H73        -9.4780   -1.6520   -2.4770 hc        1 MOL      0.141525
    156 H74       -10.1790    0.0320   -2.9380 hc        1 MOL      0.141525
    157 H75       -12.0510   -0.4930   -1.5760 hx        1 MOL      0.045098
    158 H76       -11.4200   -2.1160   -1.1920 hx        1 MOL      0.045098
    159 H77       -12.3270   -1.2340   -3.8390 hn        1 MOL      0.361423
    160 H78       -11.6770   -2.7020   -3.3720 hn        1 MOL      0.361423
    161 H79       -13.1570   -2.2110   -2.8720 hn        1 MOL      0.361423
    162 N14        -6.0270   -0.8530    1.3580 n         1 MOL     -0.106292
    163 C49        -5.8240   -0.8260    2.8280 c3        1 MOL     -0.713297
    164 C50        -6.6030    0.3720    3.3680 c         1 MOL      0.643615
    165 O22        -6.4860    1.4630    2.8620 o         1 MOL     -0.510131
    166 C51        -4.3080   -0.7220    3.1190 c3        1 MOL      0.324748
    167 C52        -3.8360   -0.9110    4.5800 c3        1 MOL     -0.131705
    168 C53        -2.2990   -1.0480    4.5430 c         1 MOL      0.710177
    169 O23        -1.5360   -0.1010    4.6980 o         1 MOL     -0.783817
    170 O24        -1.8920   -2.2000    4.5610 o         1 MOL     -0.783817
    171 H80        -5.3810   -0.2700    0.8340 hn        1 MOL      0.190412
    172 H81        -6.2090   -1.7400    3.2770 h1        1 MOL      0.204114
    173 H82        -4.0510    0.2940    2.8240 hc        1 MOL      0.043599
    174 H83        -3.7490   -1.3410    2.4210 hc        1 MOL      0.043599
    175 H84        -4.3470   -1.7940    4.9770 hc        1 MOL      0.020348
    176 H85        -4.1530   -0.0710    5.2070 hc        1 MOL      0.020348
    177 N15        -7.4080    0.1490    4.4480 n         1 MOL     -0.318884
    178 C54        -8.4540    1.0390    4.9360 c3        1 MOL     -0.166229
    179 H86        -8.9440    0.5850    5.7980 h1        1 MOL      0.090011
    180 H87        -8.0140    1.9910    5.2300 h1        1 MOL      0.090011
    181 H88        -9.1880    1.2040    4.1480 h1        1 MOL      0.090011
    182 H89        -7.1630   -0.6890    4.9670 hn        1 MOL      0.258207
    183 Ca1         0.6950   -1.5790    4.6870 Ca        1 MOL      1.753967
    184 O25         0.0810   -3.7870    5.9330 oh        1 MOL     -0.879403
    185 H90        -0.0350   -4.7290    6.0620 ho        1 MOL      0.437861
    186 H91        -0.5730   -3.3870    6.4980 ho        1 MOL      0.437861
    187 O26         3.1210   -1.9410    5.4520 oh        1 MOL     -0.879403
    188 H92         4.0140   -1.7530    5.1660 ho        1 MOL      0.437861
    189 H93         3.2300   -2.4930    6.2320 ho        1 MOL      0.437861
    190 O27         1.4960   -3.2940    2.6870 oh        1 MOL     -0.879403
    191 H94         1.3380   -4.2430    2.6160 ho        1 MOL      0.437861
    192 H95         1.9370   -3.0690    1.8730 ho        1 MOL      0.437861
@<TRIPOS>BOND
     1    1    2 1   
     2    1    4 1   
     3    1    5 1   
     4    1    6 1   
     5    2    3 2   
     6    2    7 1   
     7    7    8 1   
     8    7   15 1   
     9    8    9 1   
    10    8   11 1   
    11    8   16 1   
    12    9   10 2   
    13    9   19 1   
    14   11   12 1   
    15   11   17 1   
    16   11   18 1   
    17   12   13 1   
    18   12   14 1   
    19   19   20 1   
    20   19   28 1   
    21   20   21 1   
    22   20   23 1   
    23   20   29 1   
    24   21   22 2   
    25   21   41 1   
    26   23   24 1   
    27   23   30 1   
    28   23   31 1   
    29   24   25 1   
    30   24   32 1   
    31   24   33 1   
    32   25   26 1   
    33   25   34 1   
    34   25   35 1   
    35   26   27 1   
    36   26   36 1   
    37   26   37 1   
    38   27   38 1   
    39   27   39 1   
    40   27   40 1   
    41   41   42 1   
    42   41   49 1   
    43   42   43 1   
    44   42   45 1   
    45   42   50 1   
    46   43   44 2   
    47   43   53 1   
    48   45   46 1   
    49   45   51 1   
    50   45   52 1   
    51   46   47 1   
    52   46   48 1   
    53   53   54 1   
    54   53   57 1   
    55   54   55 1   
    56   54   58 1   
    57   54   59 1   
    58   55   56 2   
    59   55   60 1   
    60   60   61 1   
    61   60   68 1   
    62   61   62 1   
    63   61   64 1   
    64   61   69 1   
    65   62   63 2   
    66   62   72 1   
    67   64   65 1   
    68   64   70 1   
    69   64   71 1   
    70   65   66 1   
    71   65   67 1   
    72   72   73 1   
    73   72   76 1   
    74   73   74 1   
    75   73   77 1   
    76   73   78 1   
    77   74   75 2   
    78   74   79 1   
    79   79   80 1   
    80   79   86 1   
    81   80   81 1   
    82   80   83 1   
    83   80   87 1   
    84   81   82 2   
    85   81   93 1   
    86   83   84 1   
    87   83   85 1   
    88   83   88 1   
    89   84   90 1   
    90   84   91 1   
    91   84   92 1   
    92   85   89 1   
    93   93   94 1   
    94   93  101 1   
    95   94   95 1   
    96   94   97 1   
    97   94  102 1   
    98   95   96 2   
    99   95  112 1   
   100   97   98 1   
   101   97   99 1   
   102   97  103 1   
   103   98  100 1   
   104   98  104 1   
   105   98  105 1   
   106   99  106 1   
   107   99  107 1   
   108   99  108 1   
   109  100  109 1   
   110  100  110 1   
   111  100  111 1   
   112  112  113 1   
   113  112  119 1   
   114  113  114 1   
   115  113  116 1   
   116  113  120 1   
   117  114  115 2   
   118  114  126 1   
   119  116  117 1   
   120  116  118 1   
   121  116  121 1   
   122  117  123 1   
   123  117  124 1   
   124  117  125 1   
   125  118  122 1   
   126  126  127 1   
   127  126  133 1   
   128  127  128 1   
   129  127  130 1   
   130  127  134 1   
   131  128  129 2   
   132  128  140 1   
   133  130  131 1   
   134  130  132 1   
   135  130  135 1   
   136  131  137 1   
   137  131  138 1   
   138  131  139 1   
   139  132  136 1   
   140  140  141 1   
   141  140  149 1   
   142  141  142 1   
   143  141  144 1   
   144  141  150 1   
   145  142  143 2   
   146  142  162 1   
   147  144  145 1   
   148  144  151 1   
   149  144  152 1   
   150  145  146 1   
   151  145  153 1   
   152  145  154 1   
   153  146  147 1   
   154  146  155 1   
   155  146  156 1   
   156  147  148 1   
   157  147  157 1   
   158  147  158 1   
   159  148  159 1   
   160  148  160 1   
   161  148  161 1   
   162  162  163 1   
   163  162  171 1   
   164  163  164 1   
   165  163  166 1   
   166  163  172 1   
   167  164  165 2   
   168  164  177 1   
   169  166  167 1   
   170  166  173 1   
   171  166  174 1   
   172  167  168 1   
   173  167  175 1   
   174  167  176 1   
   175  168  169 1   
   176  168  170 1   
   177  177  178 1   
   178  177  182 1   
   179  178  179 1   
   180  178  180 1   
   181  178  181 1   
   182  184  185 1   
   183  184  186 1   
   184  187  188 1   
   185  187  189 1   
   186  190  191 1   
   187  190  192 1   
@<TRIPOS>SUBSTRUCTURE
     1 MOL         1 TEMP              0 ****  ****    0 ROOT
