@<TRIPOS>MOLECULE
MOL
  186   183     1     0     0
SMALL
resp


@<TRIPOS>ATOM
      1 C1         12.0920    6.0690   -2.3680 c3        1 MOL     -0.557941
      2 C2         11.7070    4.6700   -1.8250 c         1 MOL      0.654771
      3 O1         12.2590    3.6230   -2.2370 o         1 MOL     -0.611074
      4 H1         13.1360    6.2750   -2.1320 hc        1 MOL      0.153247
      5 H2         11.9530    6.0910   -3.4480 hc        1 MOL      0.153247
      6 H3         11.4590    6.8260   -1.9040 hc        1 MOL      0.153247
      7 N1         10.8670    4.6260   -0.8410 n         1 MOL     -0.040906
      8 C3         10.6060    3.4400   -0.0230 c3        1 MOL     -0.649585
      9 C4          9.3680    2.5990   -0.5880 c         1 MOL      0.491262
     10 O2          8.3840    3.1630   -1.0990 o         1 MOL     -0.636409
     11 C5         10.4310    3.7810    1.4950 c3        1 MOL      0.441797
     12 C6          9.3480    4.7070    1.9670 c         1 MOL      0.602768
     13 O3          9.2040    4.7740    3.2500 o         1 MOL     -0.690965
     14 O4          8.6220    5.4090    1.2240 o         1 MOL     -0.690965
     15 H4         10.4370    5.5180   -0.6180 hn        1 MOL      0.043954
     16 H5         11.5150    2.8460   -0.0360 h1        1 MOL      0.190319
     17 H6         11.4290    4.0810    1.7950 hc        1 MOL     -0.046278
     18 H7         10.2740    2.8380    2.0150 hc        1 MOL     -0.046278
     19 N2          9.4400    1.3120   -0.4590 n         1 MOL     -0.001076
     20 C7          8.6140    0.1630   -0.8590 c3        1 MOL     -0.306569
     21 C8          7.5190    0.0470    0.1480 c         1 MOL      0.582156
     22 O5          7.7800   -0.3050    1.3190 o         1 MOL     -0.546012
     23 C9          9.4150   -1.1330   -1.0650 c3        1 MOL     -0.032880
     24 C10        10.4230   -0.9660   -2.1730 c3        1 MOL      0.112973
     25 C11        11.1290   -2.3490   -2.3980 c3        1 MOL     -0.108721
     26 C12        12.1540   -2.6330   -1.2910 c3        1 MOL      0.133712
     27 N3         12.7100   -4.0440   -1.4430 n4        1 MOL     -0.436569
     28 H8         10.2110    1.0920    0.1520 hn        1 MOL      0.209309
     29 H9          8.2120    0.4290   -1.8370 h1        1 MOL      0.168991
     30 H10         8.7580   -1.9630   -1.3570 hc        1 MOL      0.043818
     31 H11         9.9160   -1.4120   -0.1460 hc        1 MOL      0.043818
     32 H12        11.1960   -0.2550   -1.8900 hc        1 MOL     -0.010653
     33 H13         9.9460   -0.6540   -3.0990 hc        1 MOL     -0.010653
     34 H14        11.8000   -2.2920   -3.2580 hc        1 MOL      0.051586
     35 H15        10.4190   -3.1510   -2.5510 hc        1 MOL      0.051586
     36 H16        11.7520   -2.4460   -0.2900 hx        1 MOL      0.063525
     37 H17        13.0150   -1.9670   -1.2150 hx        1 MOL      0.063525
     38 H18        11.9650   -4.6990   -1.2470 hn        1 MOL      0.293949
     39 H19        13.0110   -4.2530   -2.3800 hn        1 MOL      0.293949
     40 H20        13.4590   -4.1920   -0.7790 hn        1 MOL      0.293949
     41 N4          6.2400    0.2590   -0.2040 n         1 MOL     -0.387875
     42 C13         5.1080    0.0430    0.6940 c3        1 MOL      0.137134
     43 C14         3.8770   -0.3840   -0.1360 c         1 MOL      0.362855
     44 O6          3.9270   -0.2850   -1.3720 o         1 MOL     -0.529356
     45 C15         4.9140    1.2670    1.4990 c3        1 MOL      0.488678
     46 C16         5.3580    2.5800    0.9630 c         1 MOL      0.352663
     47 O7          4.7520    3.1210    0.0150 o         1 MOL     -0.710979
     48 O8          6.4490    3.0720    1.4020 o         1 MOL     -0.710979
     49 H21         6.0630    0.4970   -1.1740 hn        1 MOL      0.259077
     50 H22         5.3090   -0.7570    1.4150 h1        1 MOL      0.012705
     51 H23         5.4850    1.1930    2.4290 hc        1 MOL     -0.087147
     52 H24         3.8580    1.3130    1.7600 hc        1 MOL     -0.087147
     53 N5          2.7830   -0.8440    0.4830 n         1 MOL     -0.289654
     54 C17         2.5670   -1.2970    1.8900 c3        1 MOL     -0.067379
     55 C18         2.9800   -2.7730    1.9560 c         1 MOL      0.482743
     56 O9          3.2610   -3.5440    1.0080 o         1 MOL     -0.539452
     57 H25         1.9880   -1.0070   -0.1140 hn        1 MOL      0.208717
     58 H26         1.5130   -1.2020    2.1410 h1        1 MOL      0.078521
     59 H27         3.2770   -0.7310    2.5080 h1        1 MOL      0.078521
     60 N6          2.9140   -3.2680    3.1890 n         1 MOL     -0.335188
     61 C19         3.0660   -4.6720    3.4410 c3        1 MOL      0.007317
     62 C20         2.0240   -5.4790    2.6040 c         1 MOL      0.361769
     63 O10         0.8070   -5.6270    2.7910 o         1 MOL     -0.471106
     64 C21         2.7710   -4.8540    4.8970 c3        1 MOL     -0.212867
     65 C22         3.0470   -6.2670    5.3660 c         1 MOL      0.813696
     66 O11         2.7280   -6.5770    6.5160 o         1 MOL     -0.686626
     67 O12         3.7220   -6.9920    4.6090 o         1 MOL     -0.686626
     68 H28         2.8380   -2.5770    3.9300 hn        1 MOL      0.254309
     69 H29         4.0760   -5.0440    3.3130 h1        1 MOL      0.065977
     70 H30         1.7190   -4.6390    5.1040 hc        1 MOL      0.053125
     71 H31         3.4360   -4.1990    5.4560 hc        1 MOL      0.053125
     72 N7          2.6050   -6.1090    1.5820 n         1 MOL     -0.178799
     73 C23         1.9490   -6.9710    0.5780 c3        1 MOL     -0.235772
     74 C24         0.9790   -6.1930   -0.4650 c         1 MOL      0.564724
     75 O13         0.2490   -6.8710   -1.1790 o         1 MOL     -0.574637
     76 H32         3.6060   -5.9970    1.4690 hn        1 MOL      0.236155
     77 H33         1.2470   -7.6260    1.1050 h1        1 MOL      0.120177
     78 H34         2.7050   -7.5660    0.0810 h1        1 MOL      0.120177
     79 N8          0.9630   -4.8630   -0.4690 n         1 MOL     -0.249518
     80 C25         0.3470   -4.0220   -1.4190 c3        1 MOL     -0.106700
     81 C26        -0.2480   -2.8060   -0.7110 c         1 MOL      0.479171
     82 O14         0.2590   -2.1850    0.1990 o         1 MOL     -0.450813
     83 C27         1.3500   -3.4900   -2.4390 c3        1 MOL      0.449578
     84 C28         1.9240   -4.6610   -3.2430 c3        1 MOL     -0.394115
     85 O15         0.7320   -2.6630   -3.3840 oh        1 MOL     -0.636189
     86 H35         1.6120   -4.4390    0.1770 hn        1 MOL      0.184599
     87 H36        -0.4320   -4.5320   -1.9770 h1        1 MOL      0.100049
     88 H37         2.1240   -2.9410   -1.8980 h1        1 MOL     -0.020299
     89 H38         1.3880   -2.0900   -3.7680 ho        1 MOL      0.401139
     90 H39         2.6230   -4.4400   -4.0480 hc        1 MOL      0.095318
     91 H40         2.4450   -5.2580   -2.4900 hc        1 MOL      0.095318
     92 H41         1.0870   -5.1580   -3.7350 hc        1 MOL      0.095318
     93 N9         -1.2710   -2.3030   -1.3980 n         1 MOL     -0.439121
     94 C29        -1.9260   -1.0050   -1.2580 c3        1 MOL      0.011282
     95 C30        -3.3860   -1.0880   -0.9410 c         1 MOL      0.650305
     96 O16        -3.9630   -0.0860   -0.5180 o         1 MOL     -0.558054
     97 C31        -1.6430   -0.0760   -2.4690 c3        1 MOL      0.080072
     98 C32        -0.0920    0.3560   -2.5110 c3        1 MOL      0.134679
     99 C33        -2.4930    1.2360   -2.3890 c3        1 MOL     -0.226609
    100 C34         0.3270    0.6620   -3.9620 c3        1 MOL     -0.415314
    101 H42        -1.4650   -2.8250   -2.2520 hn        1 MOL      0.288238
    102 H43        -1.4980   -0.4530   -0.4240 h1        1 MOL      0.083146
    103 H44        -1.9400   -0.6010   -3.3850 hc        1 MOL      0.010586
    104 H45         0.5950   -0.3770   -2.1000 hc        1 MOL      0.006158
    105 H46        -0.0290    1.2990   -1.9840 hc        1 MOL      0.006158
    106 H47        -2.4570    1.5830   -1.3610 hc        1 MOL      0.064833
    107 H48        -2.0510    1.9610   -3.0770 hc        1 MOL      0.064833
    108 H49        -3.5340    1.0600   -2.6660 hc        1 MOL      0.064833
    109 H50        -0.2320    1.4390   -4.4720 hc        1 MOL      0.097105
    110 H51         1.3410    1.0550   -3.9870 hc        1 MOL      0.097105
    111 H52         0.4180   -0.2050   -4.6200 hc        1 MOL      0.097105
    112 N10        -4.0540   -2.2400   -1.1680 n         1 MOL     -0.556336
    113 C35        -5.4480   -2.4580   -0.7210 c3        1 MOL      0.038775
    114 C36        -6.5350   -2.0510   -1.7900 c         1 MOL      0.661433
    115 O17        -6.3120   -2.1690   -3.0000 o         1 MOL     -0.562422
    116 C37        -5.6440   -3.9640   -0.2220 c3        1 MOL      0.223132
    117 C38        -4.6290   -4.2040    0.8550 c3        1 MOL     -0.333957
    118 O18        -6.9350   -4.0850    0.2540 oh        1 MOL     -0.630375
    119 H53        -3.6090   -3.0090   -1.6510 hn        1 MOL      0.281094
    120 H54        -5.6180   -1.8220    0.1430 h1        1 MOL      0.098464
    121 H55        -5.5040   -4.6050   -1.0910 h1        1 MOL      0.042282
    122 H56        -6.8620   -4.8470    0.8480 ho        1 MOL      0.415913
    123 H57        -3.5710   -4.2100    0.6060 hc        1 MOL      0.105776
    124 H58        -4.7020   -3.4890    1.6740 hc        1 MOL      0.105776
    125 H59        -4.8990   -5.1370    1.3500 hc        1 MOL      0.105776
    126 N11        -7.7080   -1.6160   -1.3590 n         1 MOL     -0.620992
    127 C39        -8.8070   -1.2120   -2.2120 c3        1 MOL      0.062683
    128 C40        -9.4290    0.1660   -1.8870 c         1 MOL      0.633375
    129 O19        -9.8090    0.8280   -2.8090 o         1 MOL     -0.583595
    130 C41        -9.8590   -2.3380   -2.3370 c3        1 MOL      0.438745
    131 C42       -10.8920   -2.1060   -3.3770 c3        1 MOL     -0.463139
    132 O20       -10.6050   -2.4380   -1.1770 oh        1 MOL     -0.655552
    133 H60        -7.7080   -1.4190   -0.3700 hn        1 MOL      0.292643
    134 H61        -8.3710   -1.0830   -3.1950 h1        1 MOL      0.092520
    135 H62        -9.3550   -3.2830   -2.5410 h1        1 MOL      0.007388
    136 H63       -10.0590   -2.8670   -0.5180 ho        1 MOL      0.384603
    137 H64       -10.3380   -1.8420   -4.2790 hc        1 MOL      0.115389
    138 H65       -11.5700   -2.9460   -3.4980 hc        1 MOL      0.115389
    139 H66       -11.5760   -1.3400   -2.9980 hc        1 MOL      0.115389
    140 N12        -9.5180    0.5360   -0.6220 n         1 MOL     -0.456011
    141 C43        -9.9500    1.8380   -0.1730 c3        1 MOL      0.111949
    142 C44        -8.9580    2.4570    0.7840 c         1 MOL      0.430547
    143 O21        -8.4220    1.8180    1.7310 o         1 MOL     -0.512550
    144 C45       -11.3690    1.7220    0.4170 c3        1 MOL     -0.159602
    145 C46       -12.3350    1.5360   -0.7590 c3        1 MOL     -0.037605
    146 C47       -13.8140    1.3660   -0.3510 c3        1 MOL     -0.059107
    147 C48       -14.2030   -0.0860    0.0980 c3        1 MOL     -0.003974
    148 N13       -15.6150   -0.1850    0.6510 n4        1 MOL     -0.249082
    149 H67        -9.0980   -0.0230    0.1030 hn        1 MOL      0.271982
    150 H68       -10.0360    2.5700   -0.9760 h1        1 MOL      0.085390
    151 H69       -11.7110    2.6450    0.8980 hc        1 MOL      0.068937
    152 H70       -11.4630    0.9140    1.1410 hc        1 MOL      0.068937
    153 H71       -12.0000    0.7280   -1.4160 hc        1 MOL      0.047742
    154 H72       -12.2720    2.4350   -1.3730 hc        1 MOL      0.047742
    155 H73       -14.5610    1.7410   -1.0500 hc        1 MOL      0.045344
    156 H74       -13.9560    2.0380    0.4970 hc        1 MOL      0.045344
    157 H75       -13.5240   -0.4900    0.8470 hx        1 MOL      0.102066
    158 H76       -14.1440   -0.7540   -0.7640 hx        1 MOL      0.102066
    159 H77       -16.2920    0.0960   -0.0410 hn        1 MOL      0.233583
    160 H78       -15.7910   -1.1660    0.8430 hn        1 MOL      0.233583
    161 H79       -15.7650    0.4220    1.4350 hn        1 MOL      0.233583
    162 N14        -8.6570    3.7250    0.6370 n         1 MOL     -0.455901
    163 C49        -7.8250    4.6190    1.4950 c3        1 MOL      0.360677
    164 C50        -6.3630    4.3630    1.2660 c         1 MOL      0.334400
    165 O22        -5.5520    3.9890    2.1450 o         1 MOL     -0.466785
    166 C51        -8.2840    6.0560    1.4360 c3        1 MOL     -0.122001
    167 C52        -7.3680    6.9610    2.3270 c3        1 MOL     -0.176795
    168 C53        -7.5270    6.5570    3.7890 c         1 MOL      0.660753
    169 O23        -6.5240    6.1350    4.3750 o         1 MOL     -0.630893
    170 O24        -8.6290    6.6030    4.3990 o         1 MOL     -0.630893
    171 H80        -9.2470    4.1220   -0.0850 hn        1 MOL      0.242033
    172 H81        -7.8800    4.2480    2.5170 h1        1 MOL      0.079563
    173 H82        -9.3050    5.9830    1.8200 hc        1 MOL      0.010767
    174 H83        -8.2480    6.4620    0.4240 hc        1 MOL      0.010767
    175 H84        -7.7200    7.9860    2.2280 hc        1 MOL      0.052449
    176 H85        -6.3240    7.0510    2.0260 hc        1 MOL      0.052449
    177 N15        -5.8080    4.4690    0.0170 n         1 MOL     -0.357458
    178 C54        -6.3240    5.1130   -1.2280 c3        1 MOL      0.020728
    179 H86        -7.3840    5.3400   -1.1060 h1        1 MOL      0.030326
    180 H87        -5.7750    6.0360   -1.4140 h1        1 MOL      0.030326
    181 H88        -6.1930    4.4340   -2.0710 h1        1 MOL      0.030326
    182 H89        -4.8250    4.2260    0.0720 hn        1 MOL      0.272455
    183 Ca1         6.4820    5.2480   -0.1830 Ca        1 MOL      1.707318
    184 O25         4.5160    5.1920   -2.2910 oh        1 MOL     -0.779257
    185 H90         4.0160    5.4690   -1.5230 ho        1 MOL      0.397455
    186 H91         3.9330    4.5890   -2.7570 ho        1 MOL      0.397455
@<TRIPOS>BOND
     1    1    2 1   
     2    1    4 1   
     3    1    5 1   
     4    1    6 1   
     5    2    3 2   
     6    2    7 1   
     7    7    8 1   
     8    7   15 1   
     9    8    9 1   
    10    8   11 1   
    11    8   16 1   
    12    9   10 2   
    13    9   19 1   
    14   11   12 1   
    15   11   17 1   
    16   11   18 1   
    17   12   13 1   
    18   12   14 1   
    19   19   20 1   
    20   19   28 1   
    21   20   21 1   
    22   20   23 1   
    23   20   29 1   
    24   21   22 2   
    25   21   41 1   
    26   23   24 1   
    27   23   30 1   
    28   23   31 1   
    29   24   25 1   
    30   24   32 1   
    31   24   33 1   
    32   25   26 1   
    33   25   34 1   
    34   25   35 1   
    35   26   27 1   
    36   26   36 1   
    37   26   37 1   
    38   27   38 1   
    39   27   39 1   
    40   27   40 1   
    41   41   42 1   
    42   41   49 1   
    43   42   43 1   
    44   42   45 1   
    45   42   50 1   
    46   43   44 2   
    47   43   53 1   
    48   45   46 1   
    49   45   51 1   
    50   45   52 1   
    51   46   47 1   
    52   46   48 1   
    53   53   54 1   
    54   53   57 1   
    55   54   55 1   
    56   54   58 1   
    57   54   59 1   
    58   55   56 2   
    59   55   60 1   
    60   60   61 1   
    61   60   68 1   
    62   61   62 1   
    63   61   64 1   
    64   61   69 1   
    65   62   63 2   
    66   62   72 1   
    67   64   65 1   
    68   64   70 1   
    69   64   71 1   
    70   65   66 1   
    71   65   67 1   
    72   72   73 1   
    73   72   76 1   
    74   73   74 1   
    75   73   77 1   
    76   73   78 1   
    77   74   75 2   
    78   74   79 1   
    79   79   80 1   
    80   79   86 1   
    81   80   81 1   
    82   80   83 1   
    83   80   87 1   
    84   81   82 2   
    85   81   93 1   
    86   83   84 1   
    87   83   85 1   
    88   83   88 1   
    89   84   90 1   
    90   84   91 1   
    91   84   92 1   
    92   85   89 1   
    93   93   94 1   
    94   93  101 1   
    95   94   95 1   
    96   94   97 1   
    97   94  102 1   
    98   95   96 2   
    99   95  112 1   
   100   97   98 1   
   101   97   99 1   
   102   97  103 1   
   103   98  100 1   
   104   98  104 1   
   105   98  105 1   
   106   99  106 1   
   107   99  107 1   
   108   99  108 1   
   109  100  109 1   
   110  100  110 1   
   111  100  111 1   
   112  112  113 1   
   113  112  119 1   
   114  113  114 1   
   115  113  116 1   
   116  113  120 1   
   117  114  115 2   
   118  114  126 1   
   119  116  117 1   
   120  116  118 1   
   121  116  121 1   
   122  117  123 1   
   123  117  124 1   
   124  117  125 1   
   125  118  122 1   
   126  126  127 1   
   127  126  133 1   
   128  127  128 1   
   129  127  130 1   
   130  127  134 1   
   131  128  129 2   
   132  128  140 1   
   133  130  131 1   
   134  130  132 1   
   135  130  135 1   
   136  131  137 1   
   137  131  138 1   
   138  131  139 1   
   139  132  136 1   
   140  140  141 1   
   141  140  149 1   
   142  141  142 1   
   143  141  144 1   
   144  141  150 1   
   145  142  143 2   
   146  142  162 1   
   147  144  145 1   
   148  144  151 1   
   149  144  152 1   
   150  145  146 1   
   151  145  153 1   
   152  145  154 1   
   153  146  147 1   
   154  146  155 1   
   155  146  156 1   
   156  147  148 1   
   157  147  157 1   
   158  147  158 1   
   159  148  159 1   
   160  148  160 1   
   161  148  161 1   
   162  162  163 1   
   163  162  171 1   
   164  163  164 1   
   165  163  166 1   
   166  163  172 1   
   167  164  165 2   
   168  164  177 1   
   169  166  167 1   
   170  166  173 1   
   171  166  174 1   
   172  167  168 1   
   173  167  175 1   
   174  167  176 1   
   175  168  169 1   
   176  168  170 1   
   177  177  178 1   
   178  177  182 1   
   179  178  179 1   
   180  178  180 1   
   181  178  181 1   
   182  184  185 1   
   183  184  186 1   
@<TRIPOS>SUBSTRUCTURE
     1 MOL         1 TEMP              0 ****  ****    0 ROOT
