@<TRIPOS>MOLECULE
MOL
  198   191     1     0     0
SMALL
resp


@<TRIPOS>ATOM
      1 C1         -6.6210   -2.8140    5.0630 c3        1 MOL     -0.325635
      2 C2         -5.9990   -2.1430    3.8130 c         1 MOL      0.571959
      3 O1         -5.9830   -2.7740    2.7200 o         1 MOL     -0.546150
      4 H1         -5.8450   -2.9800    5.8090 hc        1 MOL      0.091072
      5 H2         -7.3920   -2.1660    5.4790 hc        1 MOL      0.091072
      6 H3         -7.0620   -3.7700    4.7810 hc        1 MOL      0.091072
      7 N1         -5.6650   -0.8360    3.8860 n         1 MOL     -0.275358
      8 C3         -5.2830    0.0130    2.7080 c3        1 MOL      0.181757
      9 C4         -3.9160   -0.1130    2.1580 c         1 MOL      0.066484
     10 O2         -3.6510    0.3230    0.9960 o         1 MOL     -0.077147
     11 C5         -5.4540    1.4970    3.2320 c3        1 MOL     -0.245665
     12 C6         -6.8600    1.7280    3.7430 c         1 MOL      0.734026
     13 O3         -7.2330    1.4430    4.8880 o         1 MOL     -0.707242
     14 O4         -7.6330    2.1360    2.8740 o         1 MOL     -0.707242
     15 H4         -5.7100   -0.3150    4.7420 hn        1 MOL      0.208867
     16 H5         -5.9190   -0.1850    1.8390 h1        1 MOL      0.091592
     17 H6         -5.2060    2.2480    2.4860 hc        1 MOL     -0.012677
     18 H7         -4.7980    1.6430    4.0950 hc        1 MOL     -0.012677
     19 N2         -3.0220   -0.7070    2.8900 n         1 MOL     -0.289259
     20 C7         -1.5270   -0.6020    2.7290 c3        1 MOL      0.006011
     21 C8         -0.8790   -2.0040    2.4780 c         1 MOL      0.590872
     22 O5         -1.1010   -2.9360    3.2230 o         1 MOL     -0.539265
     23 C9         -0.9110    0.0780    3.9620 c3        1 MOL      0.115832
     24 C10        -1.5330    1.4740    4.2850 c3        1 MOL     -0.250652
     25 C11        -0.4390    2.4060    4.7110 c3        1 MOL     -0.108742
     26 C12        -0.9790    3.6340    5.5000 c3        1 MOL      0.114166
     27 N3          0.0520    4.7140    5.4910 n4        1 MOL     -0.438877
     28 H8         -3.2860   -1.0180    3.8120 hn        1 MOL      0.210267
     29 H9         -1.3250    0.0870    1.9010 h1        1 MOL      0.113486
     30 H10         0.1530    0.1130    3.7570 hc        1 MOL      0.013871
     31 H11        -0.9930   -0.6160    4.8020 hc        1 MOL      0.013871
     32 H12        -2.3280    1.4690    5.0330 hc        1 MOL      0.115508
     33 H13        -1.8820    2.0330    3.4170 hc        1 MOL      0.115508
     34 H14         0.1770    2.6750    3.8580 hc        1 MOL      0.065897
     35 H15         0.1610    1.7830    5.3840 hc        1 MOL      0.065897
     36 H16        -1.4660    3.5780    6.4810 hx        1 MOL      0.072079
     37 H17        -1.7160    4.1590    4.9020 hx        1 MOL      0.072079
     38 H18        -0.2720    5.4620    6.0970 hn        1 MOL      0.335855
     39 H19         0.9310    4.3570    5.8480 hn        1 MOL      0.335855
     40 H20         0.1970    5.0050    4.5270 hn        1 MOL      0.335855
     41 N4          0.1020   -2.1650    1.5790 n         1 MOL     -0.299359
     42 C13         0.8650   -1.1360    0.7960 c3        1 MOL     -0.512923
     43 C14         1.3300    0.1400    1.4970 c         1 MOL      0.354687
     44 O6          0.7870    1.1800    1.3260 o         1 MOL     -0.469590
     45 C15         0.1290   -0.8230   -0.5030 c3        1 MOL     -0.329829
     46 C16         0.1930   -1.9570   -1.5580 c         1 MOL      0.311933
     47 O7          0.8190   -3.0350   -1.3620 o         1 MOL     -0.562564
     48 O8         -0.4030   -1.7930   -2.6420 o         1 MOL     -0.562564
     49 H21         0.5770   -3.0480    1.6910 hn        1 MOL      0.231835
     50 H22         1.7740   -1.6690    0.5540 h1        1 MOL      0.128895
     51 H23         0.6490    0.0770   -0.8480 hc        1 MOL      0.230724
     52 H24        -0.9120   -0.5240   -0.3580 hc        1 MOL      0.230724
     53 N5          2.3960    0.0580    2.2750 n         1 MOL     -0.179947
     54 C17         3.4660   -0.9450    2.2870 c3        1 MOL     -0.027317
     55 C18         4.5860   -0.7660    3.3450 c         1 MOL      0.447301
     56 O9          4.6010    0.0760    4.2330 o         1 MOL     -0.514685
     57 H25         2.5490    0.8470    2.8870 hn        1 MOL      0.205791
     58 H26         3.7900   -0.9250    1.2480 h1        1 MOL      0.106905
     59 H27         3.0720   -1.9090    2.5750 h1        1 MOL      0.106905
     60 N6          5.5600   -1.6680    3.4100 n         1 MOL     -0.501494
     61 C19         5.9800   -2.6410    2.3710 c3        1 MOL      0.333879
     62 C20         6.6310   -1.8720    1.1700 c         1 MOL      0.390947
     63 O10         6.8340   -0.6610    1.2660 o         1 MOL     -0.347836
     64 C21         6.9690   -3.6480    2.9600 c3        1 MOL     -0.351235
     65 C22         8.1630   -3.0210    3.6140 c         1 MOL      0.739335
     66 O11         8.8750   -3.8390    4.2500 o         1 MOL     -0.686135
     67 O12         8.4690   -1.8170    3.5630 o         1 MOL     -0.686135
     68 H28         6.1210   -1.6290    4.2530 hn        1 MOL      0.350778
     69 H29         5.0550   -3.1380    2.0820 h1        1 MOL     -0.110753
     70 H30         7.3900   -4.4460    2.3370 hc        1 MOL      0.066373
     71 H31         6.3510   -4.1480    3.6950 hc        1 MOL      0.066373
     72 N7          6.8870   -2.5830    0.0290 n         1 MOL     -0.315458
     73 C23         7.5680   -2.0690   -1.1890 c3        1 MOL     -0.301916
     74 C24         6.8070   -1.0420   -2.0330 c         1 MOL      0.562982
     75 O13         6.9810   -0.9960   -3.2080 o         1 MOL     -0.570975
     76 H32         6.5410   -3.5290    0.0400 hn        1 MOL      0.193424
     77 H33         7.7970   -2.8810   -1.8900 h1        1 MOL      0.175560
     78 H34         8.4980   -1.5790   -0.8950 h1        1 MOL      0.175560
     79 N8          6.0390   -0.1510   -1.3920 n         1 MOL     -0.277986
     80 C25         5.2030    0.9790   -1.9730 c3        1 MOL      0.090237
     81 C26         5.2470    2.3280   -1.1620 c         1 MOL      0.432902
     82 O14         5.6660    2.3250    0.0250 o         1 MOL     -0.463877
     83 C27         3.7010    0.5220   -1.9730 c3        1 MOL      0.320873
     84 C28         3.5170   -0.9580   -2.2450 c3        1 MOL     -0.103363
     85 O15         2.9200    1.3830   -2.7950 oh        1 MOL     -0.704929
     86 H35         6.0200   -0.2330   -0.3870 hn        1 MOL      0.050300
     87 H36         5.4760    1.1620   -3.0090 h1        1 MOL      0.067007
     88 H37         3.2120    0.7650   -1.0360 h1        1 MOL      0.084166
     89 H38         2.0670    0.9260   -2.8090 ho        1 MOL      0.427999
     90 H39         4.3410   -1.2770   -2.8980 hc        1 MOL      0.025047
     91 H40         3.5230   -1.4910   -1.3000 hc        1 MOL      0.025047
     92 H41         2.5650   -1.1270   -2.7490 hc        1 MOL      0.025047
     93 N9          4.8150    3.4650   -1.7650 n         1 MOL     -0.523512
     94 C29         4.7370    4.7660   -1.0770 c3        1 MOL      0.162455
     95 C30         3.3050    5.4030   -1.0870 c         1 MOL      0.549898
     96 O16         3.1470    6.5630   -0.7980 o         1 MOL     -0.537293
     97 C31         5.8810    5.7070   -1.5920 c3        1 MOL     -0.062852
     98 C32         6.2410    6.9590   -0.6920 c3        1 MOL      0.172303
     99 C33         5.6050    6.4020   -2.9540 c3        1 MOL     -0.337345
    100 C34         6.2810    6.7690    0.8290 c3        1 MOL     -0.314533
    101 H42         4.7110    3.4420   -2.7660 hn        1 MOL      0.323497
    102 H43         4.8120    4.6050    0.0000 h1        1 MOL      0.065636
    103 H44         6.8390    5.1810   -1.6790 hc        1 MOL      0.074630
    104 H45         5.5340    7.7580   -0.8910 hc        1 MOL      0.003238
    105 H46         7.1770    7.4500   -0.9660 hc        1 MOL      0.003238
    106 H47         5.7240    5.7090   -3.7900 hc        1 MOL      0.081645
    107 H48         4.6270    6.8870   -3.0180 hc        1 MOL      0.081645
    108 H49         6.3070    7.1820   -3.2250 hc        1 MOL      0.081645
    109 H50         7.1560    6.2770    1.2620 hc        1 MOL      0.067507
    110 H51         6.2820    7.7660    1.2670 hc        1 MOL      0.067507
    111 H52         5.3910    6.3210    1.2670 hc        1 MOL      0.067507
    112 N10         2.3020    4.5830   -1.4980 n         1 MOL     -0.501241
    113 C35         0.9440    4.9350   -1.6810 c3        1 MOL      0.104056
    114 C36         0.0550    3.7250   -1.2510 c         1 MOL      0.466196
    115 O17         0.1670    2.5830   -1.7560 o         1 MOL     -0.489002
    116 C37         0.5230    5.2480   -3.1070 c3        1 MOL      0.382999
    117 C38         1.4960    6.0720   -3.8480 c3        1 MOL     -0.295820
    118 O18        -0.6630    5.8950   -3.1240 oh        1 MOL     -0.640132
    119 H53         2.4910    3.6300   -1.7910 hn        1 MOL      0.265550
    120 H54         0.7990    5.7600   -0.9860 h1        1 MOL      0.065514
    121 H55         0.3640    4.2750   -3.5740 h1        1 MOL      0.006197
    122 H56        -0.9890    5.5730   -3.9610 ho        1 MOL      0.397429
    123 H57         1.7600    6.9390   -3.2440 hc        1 MOL      0.070440
    124 H58         2.3830    5.4700   -4.0450 hc        1 MOL      0.070440
    125 H59         1.2580    6.4480   -4.8420 hc        1 MOL      0.070440
    126 N11        -0.9230    4.0470   -0.3980 n         1 MOL     -0.515823
    127 C39        -2.1680    3.1570   -0.2890 c3        1 MOL      0.085144
    128 C40        -2.8450    2.7110   -1.5540 c         1 MOL      0.465988
    129 O19        -2.6650    3.2140   -2.6720 o         1 MOL     -0.535808
    130 C41        -3.2880    3.7230    0.6110 c3        1 MOL      0.339054
    131 C42        -3.9330    5.0350    0.0560 c3        1 MOL     -0.271236
    132 O20        -2.8150    3.9240    1.9290 oh        1 MOL     -0.635193
    133 H60        -0.9470    5.0150   -0.1080 hn        1 MOL      0.307752
    134 H61        -1.8430    2.2200    0.1630 h1        1 MOL      0.133875
    135 H62        -4.0400    2.9580    0.7870 h1        1 MOL      0.055586
    136 H63        -3.5420    4.1310    2.5130 ho        1 MOL      0.402107
    137 H64        -4.8520    5.1500    0.6290 hc        1 MOL      0.060992
    138 H65        -3.3610    5.9330    0.2820 hc        1 MOL      0.060992
    139 H66        -4.1430    4.9230   -1.0060 hc        1 MOL      0.060992
    140 N12        -3.5460    1.5920   -1.4020 n         1 MOL     -0.050541
    141 C43        -4.5360    1.0600   -2.4140 c3        1 MOL     -0.060713
    142 C44        -4.4530   -0.4530   -2.6550 c         1 MOL      0.685381
    143 O21        -4.7180   -0.9630   -3.7370 o         1 MOL     -0.594640
    144 C45        -5.8920    1.4930   -1.9940 c3        1 MOL     -0.232660
    145 C46        -6.8170    1.3590   -3.1320 c3        1 MOL      0.419777
    146 C47        -8.2650    1.8290   -2.8680 c3        1 MOL     -0.219058
    147 C48        -8.4540    3.2550   -2.4790 c3        1 MOL      0.106314
    148 N13        -9.9340    3.5300   -2.4060 n4        1 MOL     -0.299523
    149 H67        -3.5200    1.1640   -0.4940 hn        1 MOL     -0.306749
    150 H68        -4.3160    1.4330   -3.4180 h1        1 MOL      0.070703
    151 H69        -5.8530    2.5240   -1.6360 hc        1 MOL      0.059308
    152 H70        -6.3150    0.8940   -1.1900 hc        1 MOL      0.059308
    153 H71        -6.8820    0.3790   -3.6010 hc        1 MOL     -0.066126
    154 H72        -6.5120    1.9910   -3.9720 hc        1 MOL     -0.066126
    155 H73        -8.6620    1.0930   -2.1700 hc        1 MOL      0.062962
    156 H74        -8.8680    1.6940   -3.7630 hc        1 MOL      0.062962
    157 H75        -7.9490    3.9740   -3.1170 hx        1 MOL      0.064291
    158 H76        -8.2150    3.3960   -1.4270 hx        1 MOL      0.064291
    159 H77       -10.2240    2.7480   -1.8320 hn        1 MOL      0.303856
    160 H78       -10.1620    4.3980   -1.9360 hn        1 MOL      0.303856
    161 H79       -10.4440    3.4210   -3.2650 hn        1 MOL      0.303856
    162 N14        -3.9480   -1.1500   -1.6080 n         1 MOL     -0.300103
    163 C49        -3.8200   -2.6190   -1.5820 c3        1 MOL     -0.481963
    164 C50        -5.1970   -3.3370   -1.7720 c         1 MOL      0.359341
    165 O22        -6.2180   -3.0230   -1.1650 o         1 MOL     -0.487067
    166 C51        -3.2280   -3.0620   -0.2050 c3        1 MOL      1.226124
    167 C52        -2.9620   -4.5830   -0.0090 c3        1 MOL     -0.491035
    168 C53        -2.0600   -5.2580   -0.9850 c         1 MOL      0.867092
    169 O23        -2.4560   -5.3960   -2.1950 o         1 MOL     -0.845244
    170 O24        -0.9630   -5.7240   -0.6410 o         1 MOL     -0.845244
    171 H80        -4.0490   -0.6630   -0.7260 hn        1 MOL      0.191718
    172 H81        -3.0850   -2.9320   -2.3240 h1        1 MOL      0.233306
    173 H82        -3.8790   -2.7950    0.6210 hc        1 MOL     -0.279748
    174 H83        -2.3240   -2.5170    0.0530 hc        1 MOL     -0.279748
    175 H84        -3.9240   -5.0870   -0.0020 hc        1 MOL      0.081520
    176 H85        -2.4520   -4.6720    0.9550 hc        1 MOL      0.081520
    177 N15        -5.1620   -4.3190   -2.6690 n         1 MOL     -0.206830
    178 C54        -6.3260   -5.2140   -2.8400 c3        1 MOL     -0.067511
    179 H86        -6.5730   -5.2890   -3.8990 h1        1 MOL      0.052036
    180 H87        -6.0840   -6.2040   -2.4530 h1        1 MOL      0.052036
    181 H88        -7.1800   -4.8090   -2.2960 h1        1 MOL      0.052036
    182 H89        -4.3190   -4.4460   -3.2090 hn        1 MOL      0.302187
    183 Ca1         1.5450   -5.4060   -1.4510 Ca        1 MOL      1.775863
    184 O25        -0.0410   -6.8630   -3.1440 oh        1 MOL     -0.868175
    185 H90        -0.8890   -6.7130   -2.7280 ho        1 MOL      0.430266
    186 H91        -0.2370   -6.9160   -4.0840 ho        1 MOL      0.430266
    187 O26         2.8460   -7.2900   -2.8200 oh        1 MOL     -0.868175
    188 H92         2.2920   -7.8430   -3.3800 ho        1 MOL      0.430266
    189 H93         3.7000   -7.7250   -2.8190 ho        1 MOL      0.430266
    190 O27         3.7920   -4.1760   -2.2280 oh        1 MOL     -0.868175
    191 H94         4.4100   -3.8770   -2.8950 ho        1 MOL      0.430266
    192 H95         4.3420   -4.3820   -1.4790 ho        1 MOL      0.430266
    193 O28         0.8590   -7.7510   -0.2750 oh        1 MOL     -0.868175
    194 H96        -0.0370   -7.4130   -0.2610 ho        1 MOL      0.430266
    195 H97         0.7600   -8.6910   -0.4120 ho        1 MOL      0.430266
    196 O29         1.5430   -4.2740   -4.1860 oh        1 MOL     -0.868175
    197 H98         1.8250   -4.1730   -5.0990 ho        1 MOL      0.430266
    198 H99         1.4970   -3.3750   -3.8520 ho        1 MOL      0.430266
@<TRIPOS>BOND
     1    1    2 1   
     2    1    4 1   
     3    1    5 1   
     4    1    6 1   
     5    2    3 2   
     6    2    7 1   
     7    7    8 1   
     8    7   15 1   
     9    8    9 1   
    10    8   11 1   
    11    8   16 1   
    12    9   10 2   
    13    9   19 1   
    14   11   12 1   
    15   11   17 1   
    16   11   18 1   
    17   12   13 1   
    18   12   14 1   
    19   19   20 1   
    20   19   28 1   
    21   20   21 1   
    22   20   23 1   
    23   20   29 1   
    24   21   22 2   
    25   21   41 1   
    26   23   24 1   
    27   23   30 1   
    28   23   31 1   
    29   24   25 1   
    30   24   32 1   
    31   24   33 1   
    32   25   26 1   
    33   25   34 1   
    34   25   35 1   
    35   26   27 1   
    36   26   36 1   
    37   26   37 1   
    38   27   38 1   
    39   27   39 1   
    40   27   40 1   
    41   41   42 1   
    42   41   49 1   
    43   42   43 1   
    44   42   45 1   
    45   42   50 1   
    46   43   44 2   
    47   43   53 1   
    48   45   46 1   
    49   45   51 1   
    50   45   52 1   
    51   46   47 1   
    52   46   48 1   
    53   53   54 1   
    54   53   57 1   
    55   54   55 1   
    56   54   58 1   
    57   54   59 1   
    58   55   56 2   
    59   55   60 1   
    60   60   61 1   
    61   60   68 1   
    62   61   62 1   
    63   61   64 1   
    64   61   69 1   
    65   62   63 2   
    66   62   72 1   
    67   64   65 1   
    68   64   70 1   
    69   64   71 1   
    70   65   66 1   
    71   65   67 1   
    72   72   73 1   
    73   72   76 1   
    74   73   74 1   
    75   73   77 1   
    76   73   78 1   
    77   74   75 2   
    78   74   79 1   
    79   79   80 1   
    80   79   86 1   
    81   80   81 1   
    82   80   83 1   
    83   80   87 1   
    84   81   82 2   
    85   81   93 1   
    86   83   84 1   
    87   83   85 1   
    88   83   88 1   
    89   84   90 1   
    90   84   91 1   
    91   84   92 1   
    92   85   89 1   
    93   93   94 1   
    94   93  101 1   
    95   94   95 1   
    96   94   97 1   
    97   94  102 1   
    98   95   96 2   
    99   95  112 1   
   100   97   98 1   
   101   97   99 1   
   102   97  103 1   
   103   98  100 1   
   104   98  104 1   
   105   98  105 1   
   106   99  106 1   
   107   99  107 1   
   108   99  108 1   
   109  100  109 1   
   110  100  110 1   
   111  100  111 1   
   112  112  113 1   
   113  112  119 1   
   114  113  114 1   
   115  113  116 1   
   116  113  120 1   
   117  114  115 2   
   118  114  126 1   
   119  116  117 1   
   120  116  118 1   
   121  116  121 1   
   122  117  123 1   
   123  117  124 1   
   124  117  125 1   
   125  118  122 1   
   126  126  127 1   
   127  126  133 1   
   128  127  128 1   
   129  127  130 1   
   130  127  134 1   
   131  128  129 2   
   132  128  140 1   
   133  130  131 1   
   134  130  132 1   
   135  130  135 1   
   136  131  137 1   
   137  131  138 1   
   138  131  139 1   
   139  132  136 1   
   140  140  141 1   
   141  140  149 1   
   142  141  142 1   
   143  141  144 1   
   144  141  150 1   
   145  142  143 2   
   146  142  162 1   
   147  144  145 1   
   148  144  151 1   
   149  144  152 1   
   150  145  146 1   
   151  145  153 1   
   152  145  154 1   
   153  146  147 1   
   154  146  155 1   
   155  146  156 1   
   156  147  148 1   
   157  147  157 1   
   158  147  158 1   
   159  148  159 1   
   160  148  160 1   
   161  148  161 1   
   162  162  163 1   
   163  162  171 1   
   164  163  164 1   
   165  163  166 1   
   166  163  172 1   
   167  164  165 2   
   168  164  177 1   
   169  166  167 1   
   170  166  173 1   
   171  166  174 1   
   172  167  168 1   
   173  167  175 1   
   174  167  176 1   
   175  168  169 1   
   176  168  170 1   
   177  177  178 1   
   178  177  182 1   
   179  178  179 1   
   180  178  180 1   
   181  178  181 1   
   182  184  185 1   
   183  184  186 1   
   184  187  188 1   
   185  187  189 1   
   186  190  191 1   
   187  190  192 1   
   188  193  194 1   
   189  193  195 1   
   190  196  197 1   
   191  196  198 1   
@<TRIPOS>SUBSTRUCTURE
     1 MOL         1 TEMP              0 ****  ****    0 ROOT
