@<TRIPOS>MOLECULE
MOL
  195   189     1     0     0
SMALL
resp


@<TRIPOS>ATOM
      1 C1         -1.5000    3.7400   -2.9820 c3        1 MOL     -0.200034
      2 C2         -0.7790    4.3310   -1.7170 c         1 MOL      0.591017
      3 O1          0.1250    3.7490   -1.1670 o         1 MOL     -0.463734
      4 H1         -0.9580    4.0360   -3.8800 hc        1 MOL      0.045793
      5 H2         -1.5230    2.6520   -2.9130 hc        1 MOL      0.045793
      6 H3         -2.5190    4.1220   -3.0320 hc        1 MOL      0.045793
      7 N1         -1.2330    5.4920   -1.1250 n         1 MOL     -0.383758
      8 C3         -0.7410    5.9980    0.1390 c3        1 MOL     -0.129409
      9 C4          0.7950    6.1860    0.2190 c         1 MOL      0.683080
     10 O2          1.4510    5.7250    1.1810 o         1 MOL     -0.539672
     11 C5         -1.3430    5.4020    1.3620 c3        1 MOL     -0.053003
     12 C6         -2.8080    5.1690    1.1720 c         1 MOL      0.375897
     13 O3         -3.6590    6.0970    1.3310 o         1 MOL     -0.607048
     14 O4         -3.1850    4.0320    0.8430 o         1 MOL     -0.607048
     15 H4         -2.0690    5.9660   -1.4480 hn        1 MOL      0.206978
     16 H5         -1.1350    7.0070    0.2230 h1        1 MOL      0.066833
     17 H6         -1.2800    6.1350    2.1730 hc        1 MOL      0.076118
     18 H7         -0.7610    4.5410    1.7040 hc        1 MOL      0.076118
     19 N2          1.3160    6.6970   -0.9050 n         1 MOL     -0.615714
     20 C7          2.7090    6.7280   -1.2770 c3        1 MOL     -0.033529
     21 C8          3.4830    7.4140   -0.1320 c         1 MOL      0.401535
     22 O5          3.1330    8.4690    0.4120 o         1 MOL     -0.548088
     23 C9          2.9510    7.3300   -2.6030 c3        1 MOL     -0.002140
     24 C10         2.7430    8.7720   -2.7460 c3        1 MOL      0.268576
     25 C11         2.1990    6.4900   -3.6330 c3        1 MOL     -0.108757
     26 C12         3.1300    9.3780   -4.1090 c3        1 MOL     -0.274897
     27 H8          0.6610    6.9090   -1.6320 hn        1 MOL      0.318528
     28 H9          2.9840    5.6720   -1.2500 h1        1 MOL      0.145941
     29 H10         4.0270    7.1860   -2.7390 hc        1 MOL      0.082311
     30 H11         3.1750    9.3730   -1.9450 hc        1 MOL     -0.046523
     31 H12         1.6670    8.9180   -2.6730 hc        1 MOL     -0.046523
     32 H13         2.2720    6.6400   -4.7160 hc        1 MOL      0.025228
     33 H14         2.5290    5.4690   -3.4330 hc        1 MOL      0.025228
     34 H15         1.1390    6.6000   -3.3870 hc        1 MOL      0.025228
     35 H16         4.2110    9.2840   -4.2240 hc        1 MOL      0.046824
     36 H17         2.6750    8.7870   -4.9140 hc        1 MOL      0.046824
     37 H18         2.7710   10.4030   -4.1410 hc        1 MOL      0.046824
     38 N3          4.6650    6.8960    0.2130 n         1 MOL     -0.247097
     39 C13         5.4030    5.7500   -0.3780 c3        1 MOL     -0.030902
     40 C14         4.8130    4.3690   -0.1290 c         1 MOL      0.619520
     41 O6          4.9490    3.4690   -0.9260 o         1 MOL     -0.532617
     42 C15         6.8150    5.8360    0.2770 c3        1 MOL     -0.143761
     43 C16         7.8180    4.8350   -0.2590 c         1 MOL      0.757979
     44 O7          7.9520    4.6800   -1.4760 o         1 MOL     -0.724239
     45 O8          8.5210    4.2700    0.5470 o         1 MOL     -0.724239
     46 H19         5.2370    7.3840    0.8810 hn        1 MOL      0.224471
     47 H20         5.5310    5.8210   -1.4600 h1        1 MOL     -0.009617
     48 H21         6.8260    5.7580    1.3660 hc        1 MOL      0.006811
     49 H22         7.1760    6.8240   -0.0020 hc        1 MOL      0.006811
     50 N4          4.1060    4.3040    1.0170 n         1 MOL     -0.429518
     51 C17         3.4870    3.0120    1.5410 c3        1 MOL      0.033402
     52 C18         4.4510    1.9850    1.9750 c         1 MOL      0.425069
     53 O9          5.6030    2.3430    2.1550 o         1 MOL     -0.498605
     54 H23         3.9750    5.1430    1.5680 hn        1 MOL      0.268418
     55 H24         2.8450    2.5860    0.7610 h1        1 MOL      0.064669
     56 H25         2.8130    3.2290    2.3690 h1        1 MOL      0.064669
     57 N5          4.0820    0.7710    2.1460 n         1 MOL     -0.431124
     58 C19         4.8820   -0.2110    2.9190 c3        1 MOL      0.127319
     59 C20         5.9310   -0.8780    2.0080 c         1 MOL      0.387687
     60 O10         6.8470   -1.5370    2.4890 o         1 MOL     -0.537702
     61 C21         3.9730   -1.2830    3.5760 c3        1 MOL     -0.208314
     62 C22         3.0700   -2.0360    2.5450 c         1 MOL      0.681726
     63 O11         3.1260   -1.9200    1.2770 o         1 MOL     -0.664929
     64 O12         2.1710   -2.7720    3.0400 o         1 MOL     -0.664929
     65 H26         3.1140    0.5150    2.0240 hn        1 MOL      0.266067
     66 H27         5.4690    0.2330    3.7280 h1        1 MOL      0.059285
     67 H28         3.3210   -0.8530    4.3280 hc        1 MOL      0.045403
     68 H29         4.6520   -1.9960    4.0380 hc        1 MOL      0.045403
     69 N6          5.7380   -0.7850    0.6850 n         1 MOL     -0.103689
     70 C23         6.5930   -1.5270   -0.2170 c3        1 MOL     -0.318762
     71 C24         6.4550   -3.0570   -0.0470 c         1 MOL      0.545298
     72 O13         7.2760   -3.7940   -0.5370 o         1 MOL     -0.595083
     73 H30         4.9220   -0.3670    0.2590 hn        1 MOL      0.232854
     74 H31         7.6230   -1.1990   -0.1250 h1        1 MOL      0.130943
     75 H32         6.3430   -1.2560   -1.2440 h1        1 MOL      0.130943
     76 N7          5.3870   -3.4830    0.6380 n         1 MOL     -0.014354
     77 C25         5.0420   -4.9170    0.7950 c3        1 MOL     -0.048178
     78 C26         4.7970   -5.7170   -0.5160 c         1 MOL      0.425162
     79 O14         4.9200   -6.9510   -0.6440 o         1 MOL     -0.504130
     80 C27         6.0380   -5.6400    1.7430 c3        1 MOL      0.073320
     81 C28         6.2480   -5.1160    3.1730 c3        1 MOL     -0.133264
     82 C29         7.0870   -6.0520    4.1030 c         1 MOL      0.590374
     83 N8          7.6080   -5.4960    5.1060 n         1 MOL     -0.700674
     84 O15         6.9790   -7.2520    4.0100 o         1 MOL     -0.565653
     85 H33         4.6490   -2.8250    0.8570 hn        1 MOL      0.043478
     86 H34         4.0330   -4.8710    1.1910 h1        1 MOL      0.095160
     87 H35         7.0160   -5.6630    1.2530 hc        1 MOL      0.007596
     88 H36         5.8070   -6.7070    1.7670 hc        1 MOL      0.007596
     89 H37         5.3270   -4.7610    3.6430 hc        1 MOL      0.037997
     90 H38         6.9050   -4.2570    3.0460 hc        1 MOL      0.037997
     91 H39         7.7970   -4.5080    5.0090 hn        1 MOL      0.329030
     92 H40         8.0700   -6.0330    5.8240 hn        1 MOL      0.329030
     93 N9          4.5080   -4.9240   -1.5780 n         1 MOL     -0.231086
     94 C30         4.2750   -5.3700   -2.9770 c3        1 MOL     -0.171261
     95 C31         2.8710   -5.1010   -3.4780 c         1 MOL      0.432667
     96 O16         2.3060   -5.6600   -4.4240 o         1 MOL     -0.557873
     97 C32         5.2840   -4.7540   -3.9860 c3        1 MOL      0.317745
     98 C33         5.1710   -3.2590   -3.8640 c3        1 MOL     -0.207308
     99 C34         6.7250   -5.3390   -3.8850 c3        1 MOL     -0.207308
    100 H41         4.3740   -3.9540   -1.3480 hn        1 MOL      0.184031
    101 H42         4.3980   -6.4420   -2.9010 h1        1 MOL      0.130690
    102 H43         4.9580   -4.9650   -5.0010 hc        1 MOL     -0.036645
    103 H44         5.6870   -2.9300   -2.9610 hc        1 MOL      0.035885
    104 H45         5.5560   -2.8000   -4.7670 hc        1 MOL      0.035885
    105 H46         4.1900   -2.7690   -3.8540 hc        1 MOL      0.035885
    106 H47         6.5850   -6.4210   -3.9340 hc        1 MOL      0.035885
    107 H48         7.1420   -4.9080   -4.7890 hc        1 MOL      0.035885
    108 H49         7.2700   -5.0290   -2.9920 hc        1 MOL      0.035885
    109 N10         2.1550   -4.2800   -2.7560 n         1 MOL     -0.330916
    110 C35         0.7170   -4.1370   -2.8280 c3        1 MOL      0.413047
    111 C36         0.0240   -4.0480   -1.4930 c         1 MOL      0.362670
    112 O17         0.6370   -4.4720   -0.4640 o         1 MOL     -0.527157
    113 C37         0.3700   -2.9800   -3.7760 c3        1 MOL     -0.565696
    114 C38         0.6800   -1.6020   -3.2070 c         1 MOL      0.770373
    115 N11         1.6840   -0.9150   -3.6750 n         1 MOL     -0.833260
    116 O18         0.0150   -1.0040   -2.3820 o         1 MOL     -0.557645
    117 H50         2.5270   -3.7900   -1.9590 hn        1 MOL      0.239088
    118 H51         0.3390   -5.0380   -3.3300 h1        1 MOL      0.048137
    119 H52        -0.6730   -2.9700   -4.0970 hc        1 MOL      0.136384
    120 H53         0.8790   -3.1870   -4.7170 hc        1 MOL      0.136384
    121 H54         2.3830   -1.3710   -4.2540 hn        1 MOL      0.374637
    122 H55         1.8600    0.0400   -3.4000 hn        1 MOL      0.374637
    123 N12        -1.2770   -3.7190   -1.3510 n         1 MOL     -0.477978
    124 C39        -2.0940   -3.6770   -0.1770 c3        1 MOL      0.376746
    125 C40        -3.5340   -3.7040   -0.5260 c         1 MOL      0.362832
    126 O19        -3.9590   -3.1750   -1.5830 o         1 MOL     -0.565047
    127 C41        -1.7460   -2.3250    0.5690 c3        1 MOL     -0.245236
    128 C42        -2.3290   -2.1650    1.9540 ca        1 MOL      0.121119
    129 C43        -3.5220   -1.3940    2.1150 ca        1 MOL     -0.249974
    130 C44        -1.6840   -2.8000    3.0300 ca        1 MOL     -0.249974
    131 C45        -4.1470   -1.3620    3.3950 ca        1 MOL     -0.190743
    132 C46        -2.2590   -2.6660    4.2750 ca        1 MOL     -0.190743
    133 C47        -3.4920   -1.9780    4.4990 ca        1 MOL      0.256363
    134 O20        -3.9750   -1.9120    5.7650 oh        1 MOL     -0.509250
    135 H56        -1.6750   -3.3570   -2.2110 hn        1 MOL      0.221350
    136 H57        -1.8820   -4.5160    0.4880 h1        1 MOL      0.018410
    137 H58        -2.0460   -1.4020    0.0620 hc        1 MOL      0.120589
    138 H59        -0.6690   -2.4190    0.7290 hc        1 MOL      0.120589
    139 H60        -4.0110   -0.9150    1.2780 ha        1 MOL      0.197050
    140 H61        -0.7300   -3.3080    2.9340 ha        1 MOL      0.197050
    141 H62        -4.9680   -0.6840    3.5570 ha        1 MOL      0.137450
    142 H63        -1.8180   -3.2740    5.0500 ha        1 MOL      0.137450
    143 H64        -4.7030   -1.2780    5.8220 ho        1 MOL      0.370821
    144 N13        -4.4000   -4.1250    0.4200 n         1 MOL     -0.383672
    145 C48        -5.8380   -4.2730    0.0970 c3        1 MOL     -0.019750
    146 C49        -6.7390   -3.6580    1.1680 c         1 MOL      0.564437
    147 O21        -6.9230   -4.2300    2.2230 o         1 MOL     -0.546742
    148 C50        -6.3190   -5.7210   -0.2600 c3        1 MOL      0.010819
    149 C51        -5.8840   -6.2050   -1.6160 c3        1 MOL     -0.161047
    150 C52        -6.6700   -7.4720   -1.9210 c         1 MOL      0.699092
    151 O22        -6.1080   -8.5860   -1.7900 o         1 MOL     -0.713247
    152 O23        -7.8550   -7.4230   -2.2890 o         1 MOL     -0.713247
    153 H65        -4.0390   -4.5570    1.2570 hn        1 MOL      0.296362
    154 H66        -6.0390   -3.7830   -0.8550 h1        1 MOL      0.209908
    155 H67        -7.4080   -5.8520   -0.3170 hc        1 MOL      0.019970
    156 H68        -5.9330   -6.4010    0.5000 hc        1 MOL      0.019970
    157 H69        -4.8460   -6.5320   -1.6920 hc        1 MOL      0.022871
    158 H70        -6.1970   -5.5330   -2.4110 hc        1 MOL      0.022871
    159 N14        -7.3150   -2.4700    0.9070 n         1 MOL     -0.610521
    160 C53        -7.0860   -1.5620   -0.3000 c3        1 MOL      0.054004
    161 C54        -7.5920   -2.1570   -1.6150 c         1 MOL      0.441807
    162 O24        -8.2670   -3.1680   -1.7170 o         1 MOL     -0.499725
    163 C55        -7.7440   -0.2040   -0.0250 c3        1 MOL      0.434534
    164 C56        -7.0160    0.5650    1.0210 c3        1 MOL      0.174077
    165 C57        -7.6990    1.8450    1.5030 c         1 MOL      0.550394
    166 O25        -7.5660    2.9200    0.8900 o         1 MOL     -0.672601
    167 O26        -8.3400    1.8150    2.5650 o         1 MOL     -0.672601
    168 H71        -8.1640   -2.2340    1.3920 hn        1 MOL      0.341946
    169 H72        -6.0010   -1.5460   -0.4240 h1        1 MOL      0.028091
    170 H73        -8.8000   -0.3040    0.2130 hc        1 MOL     -0.179458
    171 H74        -7.6580    0.4580   -0.8870 hc        1 MOL     -0.179458
    172 H75        -6.0510    0.8100    0.5850 hc        1 MOL     -0.104580
    173 H76        -6.7980   -0.0030    1.9230 hc        1 MOL     -0.104580
    174 N15        -7.0310   -1.5990   -2.6460 n         1 MOL     -0.316311
    175 C58        -7.1680   -1.9200   -4.1260 c3        1 MOL     -0.495764
    176 H77        -7.3280   -0.9970   -4.6850 h1        1 MOL      0.186183
    177 H78        -6.2590   -2.4050   -4.4800 h1        1 MOL      0.186183
    178 H79        -8.0170   -2.5860   -4.2770 h1        1 MOL      0.186183
    179 H80        -6.4920   -0.7520   -2.4940 hn        1 MOL      0.290935
    180 Ca1        -5.7350    4.6860    0.6720 Ca        1 MOL      1.691427
    181 O27        -5.4050    2.9490   -1.2540 oh        1 MOL     -0.836786
    182 H81        -4.8980    2.1370   -1.2010 ho        1 MOL      0.399995
    183 H82        -5.9080    2.8770   -2.0600 ho        1 MOL      0.399995
    184 O28        -5.0890    2.8250    2.7550 oh        1 MOL     -0.836786
    185 H83        -5.4650    2.8860    3.6380 ho        1 MOL      0.399995
    186 H84        -4.1380    2.8290    2.8960 ho        1 MOL      0.399995
    187 O29        -6.3270    5.7700    3.0870 oh        1 MOL     -0.836786
    188 H85        -5.6820    5.8790    3.7840 ho        1 MOL      0.399995
    189 H86        -6.9880    5.1840    3.4560 ho        1 MOL      0.399995
    190 O30        -6.7360    7.2560    0.7260 oh        1 MOL     -0.836786
    191 H87        -6.5790    8.1960    0.8490 ho        1 MOL      0.399995
    192 H88        -7.6190    7.2110    0.3720 ho        1 MOL      0.399995
    193 O31        -8.0060    4.9870   -0.9320 oh        1 MOL     -0.836786
    194 H89        -8.3540    5.0810   -1.8260 ho        1 MOL      0.399995
    195 H90        -8.5200    4.2920   -0.5420 ho        1 MOL      0.399995
@<TRIPOS>BOND
     1    1    2 1   
     2    1    4 1   
     3    1    5 1   
     4    1    6 1   
     5    2    3 2   
     6    2    7 1   
     7    7    8 1   
     8    7   15 1   
     9    8    9 1   
    10    8   11 1   
    11    8   16 1   
    12    9   10 2   
    13    9   19 1   
    14   11   12 1   
    15   11   17 1   
    16   11   18 1   
    17   12   13 1   
    18   12   14 1   
    19   19   20 1   
    20   19   27 1   
    21   20   21 1   
    22   20   23 1   
    23   20   28 1   
    24   21   22 2   
    25   21   38 1   
    26   23   24 1   
    27   23   25 1   
    28   23   29 1   
    29   24   26 1   
    30   24   30 1   
    31   24   31 1   
    32   25   32 1   
    33   25   33 1   
    34   25   34 1   
    35   26   35 1   
    36   26   36 1   
    37   26   37 1   
    38   38   39 1   
    39   38   46 1   
    40   39   40 1   
    41   39   42 1   
    42   39   47 1   
    43   40   41 2   
    44   40   50 1   
    45   42   43 1   
    46   42   48 1   
    47   42   49 1   
    48   43   44 1   
    49   43   45 1   
    50   50   51 1   
    51   50   54 1   
    52   51   52 1   
    53   51   55 1   
    54   51   56 1   
    55   52   53 2   
    56   52   57 1   
    57   57   58 1   
    58   57   65 1   
    59   58   59 1   
    60   58   61 1   
    61   58   66 1   
    62   59   60 2   
    63   59   69 1   
    64   61   62 1   
    65   61   67 1   
    66   61   68 1   
    67   62   63 1   
    68   62   64 1   
    69   69   70 1   
    70   69   73 1   
    71   70   71 1   
    72   70   74 1   
    73   70   75 1   
    74   71   72 2   
    75   71   76 1   
    76   76   77 1   
    77   76   85 1   
    78   77   78 1   
    79   77   80 1   
    80   77   86 1   
    81   78   79 2   
    82   78   93 1   
    83   80   81 1   
    84   80   87 1   
    85   80   88 1   
    86   81   82 1   
    87   81   89 1   
    88   81   90 1   
    89   82   83 1   
    90   82   84 2   
    91   83   91 1   
    92   83   92 1   
    93   93   94 1   
    94   93  100 1   
    95   94   95 1   
    96   94   97 1   
    97   94  101 1   
    98   95   96 2   
    99   95  109 1   
   100   97   98 1   
   101   97   99 1   
   102   97  102 1   
   103   98  103 1   
   104   98  104 1   
   105   98  105 1   
   106   99  106 1   
   107   99  107 1   
   108   99  108 1   
   109  109  110 1   
   110  109  117 1   
   111  110  111 1   
   112  110  113 1   
   113  110  118 1   
   114  111  112 2   
   115  111  123 1   
   116  113  114 1   
   117  113  119 1   
   118  113  120 1   
   119  114  115 1   
   120  114  116 2   
   121  115  121 1   
   122  115  122 1   
   123  123  124 1   
   124  123  135 1   
   125  124  125 1   
   126  124  127 1   
   127  124  136 1   
   128  125  126 2   
   129  125  144 1   
   130  127  128 1   
   131  127  137 1   
   132  127  138 1   
   133  128  129 ar  
   134  128  130 ar  
   135  129  131 ar  
   136  129  139 1   
   137  130  132 ar  
   138  130  140 1   
   139  131  133 ar  
   140  131  141 1   
   141  132  133 ar  
   142  132  142 1   
   143  133  134 1   
   144  134  143 1   
   145  144  145 1   
   146  144  153 1   
   147  145  146 1   
   148  145  148 1   
   149  145  154 1   
   150  146  147 2   
   151  146  159 1   
   152  148  149 1   
   153  148  155 1   
   154  148  156 1   
   155  149  150 1   
   156  149  157 1   
   157  149  158 1   
   158  150  151 1   
   159  150  152 1   
   160  159  160 1   
   161  159  168 1   
   162  160  161 1   
   163  160  163 1   
   164  160  169 1   
   165  161  162 2   
   166  161  174 1   
   167  163  164 1   
   168  163  170 1   
   169  163  171 1   
   170  164  165 1   
   171  164  172 1   
   172  164  173 1   
   173  165  166 1   
   174  165  167 1   
   175  174  175 1   
   176  174  179 1   
   177  175  176 1   
   178  175  177 1   
   179  175  178 1   
   180  181  182 1   
   181  181  183 1   
   182  184  185 1   
   183  184  186 1   
   184  187  188 1   
   185  187  189 1   
   186  190  191 1   
   187  190  192 1   
   188  193  194 1   
   189  193  195 1   
@<TRIPOS>SUBSTRUCTURE
     1 MOL         1 TEMP              0 ****  ****    0 ROOT
