@<TRIPOS>MOLECULE
MOL
  195   189     1     0     0
SMALL
resp


@<TRIPOS>ATOM
      1 C1         -3.7730   -4.1300    2.7520 c3        1 MOL     -0.121674
      2 C2         -3.1470   -4.1760    1.3770 c         1 MOL      0.324918
      3 O1         -2.7560   -3.1620    0.8240 o         1 MOL     -0.402351
      4 H1         -4.3500   -5.0390    2.9180 hc        1 MOL      0.027052
      5 H2         -2.9890   -4.0560    3.5050 hc        1 MOL      0.027052
      6 H3         -4.4300   -3.2640    2.8230 hc        1 MOL      0.027052
      7 N1         -3.0040   -5.3910    0.7810 n         1 MOL     -0.493075
      8 C3         -2.3370   -5.6480   -0.5410 c3        1 MOL      0.041695
      9 C4         -0.8640   -5.3040   -0.4320 c         1 MOL      0.541801
     10 O2         -0.3730   -4.5980   -1.2840 o         1 MOL     -0.517750
     11 C5         -3.0900   -4.8830   -1.6540 c3        1 MOL     -0.496656
     12 C6         -4.6050   -4.9060   -1.5260 c         1 MOL      0.730546
     13 O3         -5.2260   -5.9100   -1.9160 o         1 MOL     -0.681876
     14 O4         -5.2420   -3.9290   -1.0260 o         1 MOL     -0.681876
     15 H4         -3.5670   -6.1100    1.2100 hn        1 MOL      0.314285
     16 H5         -2.3430   -6.7180   -0.7400 h1        1 MOL      0.080632
     17 H6         -2.8740   -5.2750   -2.6440 hc        1 MOL      0.182934
     18 H7         -2.8760   -3.8240   -1.5870 hc        1 MOL      0.182934
     19 N2         -0.2510   -5.5520    0.7610 n         1 MOL     -0.167127
     20 C7          1.1170   -5.3360    1.0470 c3        1 MOL     -0.299822
     21 C8          2.0040   -6.4660    0.5970 c         1 MOL      0.475277
     22 O5          1.6200   -7.6420    0.7900 o         1 MOL     -0.580023
     23 C9          1.4190   -4.8970    2.5190 c3        1 MOL      0.258568
     24 C10         0.8080   -5.8260    3.5620 c3        1 MOL      0.331539
     25 C11         1.0110   -3.4650    2.5950 c3        1 MOL     -0.544275
     26 C12         0.9280   -5.3050    5.0480 c3        1 MOL     -0.402939
     27 H8         -0.6300   -6.3080    1.3020 hn        1 MOL      0.167285
     28 H9          1.4400   -4.5460    0.3730 h1        1 MOL      0.173320
     29 H10         2.4840   -4.8390    2.7470 hc        1 MOL     -0.023972
     30 H11         1.2840   -6.8010    3.4320 hc        1 MOL     -0.070427
     31 H12        -0.2300   -6.0460    3.3090 hc        1 MOL     -0.070427
     32 H13        -0.0570   -3.4330    2.3650 hc        1 MOL      0.141225
     33 H14         1.1300   -2.9720    3.5610 hc        1 MOL      0.141225
     34 H15         1.6060   -3.0010    1.8070 hc        1 MOL      0.141225
     35 H16         1.9860   -5.3430    5.3220 hc        1 MOL      0.083431
     36 H17         0.3780   -4.3660    5.1420 hc        1 MOL      0.083431
     37 H18         0.4900   -6.0240    5.7370 hc        1 MOL      0.083431
     38 N3          3.0960   -6.2020   -0.1000 n         1 MOL     -0.346809
     39 C13         3.8490   -5.0110   -0.0230 c3        1 MOL      0.008576
     40 C14         3.4990   -3.9450   -1.0390 c         1 MOL      0.389687
     41 O6          3.4920   -2.7630   -0.6830 o         1 MOL     -0.486094
     42 C15         5.3530   -5.3520   -0.1510 c3        1 MOL     -0.131019
     43 C16         5.8960   -6.0720   -1.3800 c         1 MOL      0.696294
     44 O7          5.3030   -6.9730   -1.9650 o         1 MOL     -0.696346
     45 O8          7.0730   -5.7190   -1.7080 o         1 MOL     -0.696346
     46 H19         3.6480   -6.9750   -0.4500 hn        1 MOL      0.249946
     47 H20         3.7330   -4.4300    0.8930 h1        1 MOL      0.063106
     48 H21         5.7020   -5.9960    0.6540 hc        1 MOL      0.020809
     49 H22         5.8250   -4.3970    0.0850 hc        1 MOL      0.020809
     50 N4          3.1090   -4.2560   -2.2740 n         1 MOL     -0.137390
     51 C17         2.7410   -3.2440   -3.2810 c3        1 MOL     -0.253342
     52 C18         3.9760   -2.4380   -3.6730 c         1 MOL      0.437694
     53 O9          5.0200   -3.0930   -4.0030 o         1 MOL     -0.530043
     54 H23         2.9690   -5.2310   -2.4710 hn        1 MOL      0.231707
     55 H24         2.0150   -2.5070   -2.9290 h1        1 MOL      0.118320
     56 H25         2.3360   -3.7370   -4.1680 h1        1 MOL      0.118320
     57 N5          4.0790   -1.1500   -3.5320 n         1 MOL     -0.331072
     58 C19         5.3570   -0.4370   -3.7410 c3        1 MOL      0.080577
     59 C20         6.2450   -0.4270   -2.5320 c         1 MOL      0.382063
     60 O10         7.4680   -0.3360   -2.7380 o         1 MOL     -0.598011
     61 C21         5.0750    1.0270   -4.1920 c3        1 MOL     -0.358001
     62 C22         4.1110    1.8760   -3.2780 c         1 MOL      0.672145
     63 O11         4.1480    1.7070   -2.0470 o         1 MOL     -0.678810
     64 O12         3.3980    2.8490   -3.7860 o         1 MOL     -0.678810
     65 H26         3.2540   -0.6540   -3.2220 hn        1 MOL      0.272927
     66 H27         5.9520   -0.9140   -4.5150 h1        1 MOL      0.108809
     67 H28         4.5900    0.9700   -5.1730 hc        1 MOL      0.075729
     68 H29         6.0250    1.5500   -4.2750 hc        1 MOL      0.075729
     69 N6          5.8070   -0.7550   -1.3210 n         1 MOL      0.146469
     70 C23         6.5760   -0.9660   -0.0600 c3        1 MOL     -0.417776
     71 C24         6.8320    0.3400    0.6810 c         1 MOL      0.847368
     72 O13         7.3700    0.3350    1.8000 o         1 MOL     -0.640291
     73 H30         4.8270   -0.9690   -1.2060 hn        1 MOL      0.080267
     74 H31         7.4640   -1.5190   -0.3580 h1        1 MOL      0.137626
     75 H32         5.9710   -1.5730    0.6170 h1        1 MOL      0.137626
     76 N7          6.4150    1.5040    0.1220 n         1 MOL     -0.734687
     77 C25         6.6960    2.9200    0.4890 c3        1 MOL     -0.009923
     78 C26         6.1690    3.4160    1.8980 c         1 MOL      0.383356
     79 O14         6.0780    4.6580    2.0750 o         1 MOL     -0.506270
     80 C27         8.1590    3.3550    0.2580 c3        1 MOL      0.040003
     81 C28         8.8040    2.7290   -1.0180 c3        1 MOL     -0.063625
     82 C29        10.2420    3.2660   -1.1610 c         1 MOL      0.684466
     83 N8         11.0500    2.8340   -2.1260 n         1 MOL     -0.869242
     84 O15        10.7180    4.0430   -0.3660 o         1 MOL     -0.578045
     85 H33         6.0500    1.4590   -0.8180 hn        1 MOL      0.367105
     86 H34         6.0800    3.4660   -0.2260 h1        1 MOL      0.165831
     87 H35         8.8300    3.1120    1.0780 hc        1 MOL      0.009842
     88 H36         8.2050    4.4330    0.1020 hc        1 MOL      0.009842
     89 H37         8.3010    3.0760   -1.9130 hc        1 MOL      0.046335
     90 H38         8.8620    1.6430   -1.0260 hc        1 MOL      0.046335
     91 H39        10.7340    2.0680   -2.7000 hn        1 MOL      0.367046
     92 H40        12.0270    3.0630   -2.1080 hn        1 MOL      0.367046
     93 N9          5.6900    2.5100    2.7460 n         1 MOL     -0.133043
     94 C30         5.0140    2.9010    3.9910 c3        1 MOL     -0.103468
     95 C31         3.4560    2.9730    4.0510 c         1 MOL      0.579567
     96 O16         3.0220    4.0470    4.4960 o         1 MOL     -0.557715
     97 C32         5.5140    2.0030    5.1530 c3        1 MOL      0.162870
     98 C33         5.0480    0.5000    5.0270 c3        1 MOL     -0.335684
     99 C34         7.0490    1.8650    5.3720 c3        1 MOL     -0.335684
    100 H41         5.7120    1.5320    2.5010 hn        1 MOL      0.211875
    101 H42         5.3350    3.9290    4.1610 h1        1 MOL      0.092274
    102 H43         4.9930    2.2290    6.0780 hc        1 MOL     -0.012119
    103 H44         5.5860   -0.0820    5.7730 hc        1 MOL      0.085631
    104 H45         3.9860    0.4200    5.2330 hc        1 MOL      0.085631
    105 H46         5.3100    0.0540    4.0660 hc        1 MOL      0.085631
    106 H47         7.5150    1.3470    4.5450 hc        1 MOL      0.085631
    107 H48         7.4820    2.8500    5.5410 hc        1 MOL      0.085631
    108 H49         7.2460    1.2270    6.2340 hc        1 MOL      0.085631
    109 N10         2.7380    2.0280    3.4860 n         1 MOL     -0.414998
    110 C35         1.3510    1.9370    3.1370 c3        1 MOL      0.178771
    111 C36         1.0040    2.6590    1.7560 c         1 MOL      0.626852
    112 O17         1.8880    3.0930    1.0120 o         1 MOL     -0.507705
    113 C37         0.9260    0.4660    3.0610 c3        1 MOL     -0.212414
    114 C38        -0.4910    0.1960    2.6900 c         1 MOL      0.574993
    115 N11        -0.7420   -0.3090    1.4650 n         1 MOL     -0.604580
    116 O18        -1.4630    0.5880    3.3560 o         1 MOL     -0.551620
    117 H50         3.2780    1.2600    3.1150 hn        1 MOL      0.223842
    118 H51         0.6900    2.3510    3.9080 h1        1 MOL      0.048735
    119 H52         1.1140    0.0480    4.0530 hc        1 MOL      0.037473
    120 H53         1.5960    0.0260    2.3220 hc        1 MOL      0.037473
    121 H54         0.0420   -0.4450    0.8330 hn        1 MOL      0.332276
    122 H55        -1.6690   -0.6260    1.2330 hn        1 MOL      0.332276
    123 N12        -0.2770    2.7420    1.3860 n         1 MOL     -0.766174
    124 C39        -0.8040    3.4250    0.1820 c3        1 MOL      0.308393
    125 C40        -2.1010    4.1630    0.5570 c         1 MOL      0.773906
    126 O19        -2.5820    4.0430    1.6850 o         1 MOL     -0.593327
    127 C41        -1.0270    2.3130   -0.7750 c3        1 MOL     -0.158364
    128 C42        -1.2830    2.7340   -2.2620 ca        1 MOL      0.028529
    129 C43        -2.5850    2.7980   -2.7710 ca        1 MOL     -0.188247
    130 C44        -0.2270    3.0520   -3.0910 ca        1 MOL     -0.188247
    131 C45        -2.9280    3.2210   -4.0560 ca        1 MOL     -0.189646
    132 C46        -0.4650    3.5640   -4.3830 ca        1 MOL     -0.189646
    133 C47        -1.8050    3.5910   -4.9000 ca        1 MOL      0.222976
    134 O20        -1.9750    3.9900   -6.2260 oh        1 MOL     -0.463064
    135 H56        -1.0200    2.3940    1.9830 hn        1 MOL      0.344910
    136 H57        -0.0980    4.1300   -0.2610 h1        1 MOL      0.062669
    137 H58        -1.8060    1.6550   -0.4130 hc        1 MOL      0.077113
    138 H59        -0.1860    1.6260   -0.7320 hc        1 MOL      0.077113
    139 H60        -3.3300    2.7360   -1.9830 ha        1 MOL      0.166905
    140 H61         0.7780    2.9480   -2.7160 ha        1 MOL      0.166905
    141 H62        -3.9450    3.2060   -4.4030 ha        1 MOL      0.153295
    142 H63         0.3720    3.9090   -4.9800 ha        1 MOL      0.153295
    143 H64        -2.9220    3.9380   -6.3350 ho        1 MOL      0.331224
    144 N13        -2.7810    4.7540   -0.4570 n         1 MOL     -1.329208
    145 C48        -4.0040    5.5460   -0.3560 c3        1 MOL      0.951955
    146 C49        -5.0500    5.0890   -1.4030 c         1 MOL      0.107089
    147 O21        -5.1740    5.6610   -2.5310 o         1 MOL     -0.507647
    148 C50        -3.6230    7.0770   -0.4690 c3        1 MOL     -0.043365
    149 C51        -4.8980    7.8890   -0.3660 c3        1 MOL     -0.323845
    150 C52        -4.5820    9.3660   -0.1720 c         1 MOL      0.745524
    151 O22        -5.2100   10.0540    0.6130 o         1 MOL     -0.668833
    152 O23        -3.6990    9.9280   -0.8510 o         1 MOL     -0.668833
    153 H65        -2.2840    4.9000   -1.3200 hn        1 MOL      0.487473
    154 H66        -4.4810    5.4640    0.6180 h1        1 MOL     -0.084895
    155 H67        -3.0670    7.3080   -1.3740 hc        1 MOL      0.027272
    156 H68        -3.0090    7.3050    0.4070 hc        1 MOL      0.027272
    157 H69        -5.4620    7.6130    0.5340 hc        1 MOL      0.066061
    158 H70        -5.5820    7.7280   -1.1970 hc        1 MOL      0.066061
    159 N14        -5.8700    4.0550   -1.1520 n         1 MOL     -0.237735
    160 C53        -6.0210    3.2780    0.0760 c3        1 MOL     -0.240216
    161 C54        -6.4900    3.9530    1.3330 c         1 MOL      0.490910
    162 O24        -7.1360    5.0190    1.2950 o         1 MOL     -0.503603
    163 C55        -6.7640    1.9780   -0.2280 c3        1 MOL      0.003115
    164 C56        -6.0340    0.8750   -0.9170 c3        1 MOL     -0.042587
    165 C57        -6.6260   -0.5010   -0.6960 c         1 MOL      0.457346
    166 O25        -7.3950   -1.0810   -1.5030 o         1 MOL     -0.579363
    167 O26        -6.3140   -1.0100    0.3740 o         1 MOL     -0.579363
    168 H71        -6.5850    3.9870   -1.8640 hn        1 MOL      0.300609
    169 H72        -5.0460    2.8830    0.3580 h1        1 MOL      0.184741
    170 H73        -7.6320    2.2700   -0.8160 hc        1 MOL      0.022937
    171 H74        -7.1350    1.4180    0.6230 hc        1 MOL      0.022937
    172 H75        -5.0750    0.9610   -0.4160 hc        1 MOL     -0.015577
    173 H76        -5.9660    1.0600   -1.9900 hc        1 MOL     -0.015577
    174 N15        -6.1410    3.3440    2.4790 n         1 MOL     -0.210867
    175 C58        -6.8220    3.5480    3.7720 c3        1 MOL     -0.277446
    176 H77        -7.8440    3.1740    3.7080 h1        1 MOL      0.107744
    177 H78        -6.2870    3.0080    4.5540 h1        1 MOL      0.107744
    178 H79        -6.8390    4.6110    4.0100 h1        1 MOL      0.107744
    179 H80        -5.4050    2.6560    2.5130 hn        1 MOL      0.258036
    180 Ca1        -7.6560   -3.3360    0.0170 Ca        1 MOL      1.612182
    181 O27        -9.5510   -4.9090    1.2780 oh        1 MOL     -0.753951
    182 H81        -9.4350   -4.9950    2.2300 ho        1 MOL      0.350496
    183 H82       -10.1250   -5.6320    1.0420 ho        1 MOL      0.350496
    184 O28        -7.5080   -5.9320   -0.6850 oh        1 MOL     -0.753951
    185 H83        -7.6240   -6.6810   -0.1100 ho        1 MOL      0.350496
    186 H84        -6.7400   -6.1300   -1.2130 ho        1 MOL      0.350496
    187 O29        -8.1910   -2.3650    2.4950 oh        1 MOL     -0.753951
    188 H85        -8.6120   -1.5960    2.8710 ho        1 MOL      0.350496
    189 H86        -8.6890   -3.1030    2.8350 ho        1 MOL      0.350496
    190 O30        -9.0040   -3.7720   -2.3420 oh        1 MOL     -0.753951
    191 H87        -9.5310   -3.1740   -2.8760 ho        1 MOL      0.350496
    192 H88        -8.6840   -4.4230   -2.9560 ho        1 MOL      0.350496
    193 O31       -10.0240   -1.9770   -0.2390 oh        1 MOL     -0.753951
    194 H89       -10.0430   -1.3300   -0.9500 ho        1 MOL      0.350496
    195 H90       -10.9250   -1.9850    0.0900 ho        1 MOL      0.350496
@<TRIPOS>BOND
     1    1    2 1   
     2    1    4 1   
     3    1    5 1   
     4    1    6 1   
     5    2    3 2   
     6    2    7 1   
     7    7    8 1   
     8    7   15 1   
     9    8    9 1   
    10    8   11 1   
    11    8   16 1   
    12    9   10 2   
    13    9   19 1   
    14   11   12 1   
    15   11   17 1   
    16   11   18 1   
    17   12   13 1   
    18   12   14 1   
    19   19   20 1   
    20   19   27 1   
    21   20   21 1   
    22   20   23 1   
    23   20   28 1   
    24   21   22 2   
    25   21   38 1   
    26   23   24 1   
    27   23   25 1   
    28   23   29 1   
    29   24   26 1   
    30   24   30 1   
    31   24   31 1   
    32   25   32 1   
    33   25   33 1   
    34   25   34 1   
    35   26   35 1   
    36   26   36 1   
    37   26   37 1   
    38   38   39 1   
    39   38   46 1   
    40   39   40 1   
    41   39   42 1   
    42   39   47 1   
    43   40   41 2   
    44   40   50 1   
    45   42   43 1   
    46   42   48 1   
    47   42   49 1   
    48   43   44 1   
    49   43   45 1   
    50   50   51 1   
    51   50   54 1   
    52   51   52 1   
    53   51   55 1   
    54   51   56 1   
    55   52   53 2   
    56   52   57 1   
    57   57   58 1   
    58   57   65 1   
    59   58   59 1   
    60   58   61 1   
    61   58   66 1   
    62   59   60 2   
    63   59   69 1   
    64   61   62 1   
    65   61   67 1   
    66   61   68 1   
    67   62   63 1   
    68   62   64 1   
    69   69   70 1   
    70   69   73 1   
    71   70   71 1   
    72   70   74 1   
    73   70   75 1   
    74   71   72 2   
    75   71   76 1   
    76   76   77 1   
    77   76   85 1   
    78   77   78 1   
    79   77   80 1   
    80   77   86 1   
    81   78   79 2   
    82   78   93 1   
    83   80   81 1   
    84   80   87 1   
    85   80   88 1   
    86   81   82 1   
    87   81   89 1   
    88   81   90 1   
    89   82   83 1   
    90   82   84 2   
    91   83   91 1   
    92   83   92 1   
    93   93   94 1   
    94   93  100 1   
    95   94   95 1   
    96   94   97 1   
    97   94  101 1   
    98   95   96 2   
    99   95  109 1   
   100   97   98 1   
   101   97   99 1   
   102   97  102 1   
   103   98  103 1   
   104   98  104 1   
   105   98  105 1   
   106   99  106 1   
   107   99  107 1   
   108   99  108 1   
   109  109  110 1   
   110  109  117 1   
   111  110  111 1   
   112  110  113 1   
   113  110  118 1   
   114  111  112 2   
   115  111  123 1   
   116  113  114 1   
   117  113  119 1   
   118  113  120 1   
   119  114  115 1   
   120  114  116 2   
   121  115  121 1   
   122  115  122 1   
   123  123  124 1   
   124  123  135 1   
   125  124  125 1   
   126  124  127 1   
   127  124  136 1   
   128  125  126 2   
   129  125  144 1   
   130  127  128 1   
   131  127  137 1   
   132  127  138 1   
   133  128  129 ar  
   134  128  130 ar  
   135  129  131 ar  
   136  129  139 1   
   137  130  132 ar  
   138  130  140 1   
   139  131  133 ar  
   140  131  141 1   
   141  132  133 ar  
   142  132  142 1   
   143  133  134 1   
   144  134  143 1   
   145  144  145 1   
   146  144  153 1   
   147  145  146 1   
   148  145  148 1   
   149  145  154 1   
   150  146  147 2   
   151  146  159 1   
   152  148  149 1   
   153  148  155 1   
   154  148  156 1   
   155  149  150 1   
   156  149  157 1   
   157  149  158 1   
   158  150  151 1   
   159  150  152 1   
   160  159  160 1   
   161  159  168 1   
   162  160  161 1   
   163  160  163 1   
   164  160  169 1   
   165  161  162 2   
   166  161  174 1   
   167  163  164 1   
   168  163  170 1   
   169  163  171 1   
   170  164  165 1   
   171  164  172 1   
   172  164  173 1   
   173  165  166 1   
   174  165  167 1   
   175  174  175 1   
   176  174  179 1   
   177  175  176 1   
   178  175  177 1   
   179  175  178 1   
   180  181  182 1   
   181  181  183 1   
   182  184  185 1   
   183  184  186 1   
   184  187  188 1   
   185  187  189 1   
   186  190  191 1   
   187  190  192 1   
   188  193  194 1   
   189  193  195 1   
@<TRIPOS>SUBSTRUCTURE
     1 MOL         1 TEMP              0 ****  ****    0 ROOT
