@<TRIPOS>MOLECULE
MOL
  191   184     1     0     0
SMALL
resp


@<TRIPOS>ATOM
      1 C1          4.5040    0.9200    3.5160 c3        1 MOL     -0.341502
      2 C2          5.6000    0.8940    2.4170 c         1 MOL      0.623081
      3 O1          5.2360    0.7750    1.2500 o         1 MOL     -0.467153
      4 H1          4.6420    1.8000    4.1440 hc        1 MOL      0.101436
      5 H2          3.5200    0.9600    3.0470 hc        1 MOL      0.101436
      6 H3          4.5800    0.0210    4.1270 hc        1 MOL      0.101436
      7 N1          6.9200    1.0860    2.7080 n         1 MOL     -0.500579
      8 C3          8.0970    1.2680    1.8200 c3        1 MOL     -0.275296
      9 C4          8.3250    0.1380    0.7390 c         1 MOL      0.760099
     10 O2          9.0300    0.3240   -0.1860 o         1 MOL     -0.573356
     11 C5          7.9910    2.6520    1.1050 c3        1 MOL     -0.159027
     12 C6          7.5150    3.8160    2.0400 c         1 MOL      0.637658
     13 O3          6.7000    4.6300    1.5150 o         1 MOL     -0.598051
     14 O4          8.1700    4.2220    2.9870 o         1 MOL     -0.598051
     15 H4          7.0750    1.3230    3.6750 hn        1 MOL      0.303660
     16 H5          9.0010    1.2460    2.4210 h1        1 MOL      0.143872
     17 H6          7.3160    2.6320    0.2530 hc        1 MOL      0.088946
     18 H7          8.9490    2.9460    0.6750 hc        1 MOL      0.088946
     19 N2          7.6040   -0.9760    0.9070 n         1 MOL     -0.564428
     20 C7          7.5910   -2.0890   -0.1290 c3        1 MOL      0.360648
     21 C8          6.2400   -2.5780   -0.6860 c         1 MOL      0.480431
     22 O5          6.1220   -3.6160   -1.3790 o         1 MOL     -0.587465
     23 C9          8.4480   -3.2620    0.3110 c3        1 MOL     -0.409345
     24 C10         9.9520   -2.9680    0.1880 c3        1 MOL      0.145173
     25 C11        10.9570   -4.1340    0.6310 c3        1 MOL     -0.134050
     26 C12        12.3580   -3.6070    0.4420 c3        1 MOL      0.137937
     27 N3         13.4570   -4.6030    0.6720 n4        1 MOL     -0.268734
     28 H8          7.0480   -1.1270    1.7330 hn        1 MOL      0.266295
     29 H9          8.0630   -1.6580   -1.0190 h1        1 MOL      0.036678
     30 H10         8.2360   -4.0540   -0.4110 hc        1 MOL      0.100063
     31 H11         8.1950   -3.4340    1.3600 hc        1 MOL      0.100063
     32 H12        10.2600   -2.0450    0.6770 hc        1 MOL      0.004978
     33 H13        10.1480   -2.7730   -0.8680 hc        1 MOL      0.004978
     34 H14        10.7630   -4.9540   -0.0480 hc        1 MOL      0.055346
     35 H15        10.7270   -4.3770    1.6680 hc        1 MOL      0.055346
     36 H16        12.5680   -2.8070    1.1490 hx        1 MOL      0.052014
     37 H17        12.4510   -3.1650   -0.5500 hx        1 MOL      0.052014
     38 H18        13.3770   -5.4910    0.2040 hn        1 MOL      0.239418
     39 H19        14.2920   -4.1970    0.2880 hn        1 MOL      0.239418
     40 H20        13.5820   -4.8720    1.6320 hn        1 MOL      0.239418
     41 N4          5.1540   -1.8190   -0.4120 n         1 MOL     -0.370031
     42 C13         3.7780   -2.1750   -0.7000 c3        1 MOL     -0.052982
     43 C14         3.3860   -1.6470   -2.1140 c         1 MOL      0.562317
     44 O6          3.5440   -0.4680   -2.4510 o         1 MOL     -0.480968
     45 C15         2.8660   -1.6400    0.4840 c3        1 MOL     -0.018020
     46 C16         1.3830   -1.9070    0.3190 c         1 MOL      0.530126
     47 O7          1.0020   -2.7040   -0.5720 o         1 MOL     -0.633898
     48 O8          0.5620   -1.2760    0.9300 o         1 MOL     -0.633898
     49 H21         5.2940   -0.9380    0.0770 hn        1 MOL      0.188556
     50 H22         3.7090   -3.2620   -0.6450 h1        1 MOL      0.091780
     51 H23         2.9550   -0.5630    0.6240 hc        1 MOL      0.043690
     52 H24         3.2130   -2.1550    1.3780 hc        1 MOL      0.043690
     53 N5          2.8400   -2.5800   -2.8830 n         1 MOL     -0.270276
     54 C17         2.2290   -2.3470   -4.2130 c3        1 MOL     -0.234213
     55 C18         1.1500   -1.2390   -4.3000 c         1 MOL      0.471913
     56 O9          1.0360   -0.4450   -5.2150 o         1 MOL     -0.508922
     57 H25         2.4900   -3.3980   -2.4070 hn        1 MOL      0.135886
     58 H26         1.7580   -3.2360   -4.6330 h1        1 MOL      0.127517
     59 H27         2.9200   -1.9180   -4.9440 h1        1 MOL      0.127517
     60 N6          0.4080   -1.0430   -3.1300 n         1 MOL     -0.203119
     61 C19        -0.7220   -0.1230   -2.9920 c3        1 MOL     -0.042974
     62 C20        -0.2160    1.2380   -2.5120 c         1 MOL      0.464737
     63 O10        -1.0010    2.1830   -2.5210 o         1 MOL     -0.490910
     64 C21        -1.7090   -0.7330   -1.9690 c3        1 MOL     -0.200516
     65 C22        -2.2020   -2.0810   -2.4250 c         1 MOL      0.491988
     66 N7         -3.1310   -2.2260   -3.3130 n         1 MOL     -0.694032
     67 O11        -1.7190   -3.1060   -1.9500 o         1 MOL     -0.529037
     68 H28         0.5780   -1.6070   -2.3020 hn        1 MOL      0.179412
     69 H29        -1.2080    0.0580   -3.9490 h1        1 MOL      0.093669
     70 H30        -2.5620   -0.0520   -2.0300 hc        1 MOL      0.142007
     71 H31        -1.4040   -0.6860   -0.9210 hc        1 MOL      0.142007
     72 H32        -3.7130   -1.4440   -3.5720 hn        1 MOL      0.355956
     73 H33        -3.4270   -3.1640   -3.5520 hn        1 MOL      0.355956
     74 N8          1.0450    1.4760   -2.1130 n         1 MOL     -0.214278
     75 C23         1.6840    2.7220   -1.7190 c3        1 MOL     -0.218409
     76 C24         0.9840    3.3820   -0.5520 c         1 MOL      0.677076
     77 O12         0.9300    2.8810    0.5620 o         1 MOL     -0.518173
     78 H34         1.7040    0.7750   -2.4000 hn        1 MOL      0.255481
     79 H35         1.6110    3.3970   -2.5820 h1        1 MOL      0.100525
     80 H36         2.7290    2.4690   -1.5230 h1        1 MOL      0.100525
     81 N9          0.4530    4.6340   -0.8700 n         1 MOL     -0.373822
     82 C25        -0.5500    5.4390   -0.0780 c3        1 MOL      0.006715
     83 C26        -1.8550    4.7900    0.3360 c         1 MOL      0.535960
     84 O13        -2.8960    5.4000    0.0760 o         1 MOL     -0.543238
     85 C27         0.1790    6.1000    1.0970 c3        1 MOL     -0.143938
     86 C28         1.3980    7.0260    0.7850 ca        1 MOL      0.177261
     87 C29         2.6820    6.4110    0.8170 ca        1 MOL     -0.327349
     88 C30         1.2830    8.3530    0.3540 ca        1 MOL     -0.327349
     89 C31         3.8440    7.1880    0.5880 ca        1 MOL     -0.109503
     90 C32         2.4510    9.0930    0.0410 ca        1 MOL     -0.109503
     91 C33         3.7130    8.5030    0.1470 ca        1 MOL      0.224493
     92 O14         4.8310    9.2030   -0.2180 oh        1 MOL     -0.425121
     93 H37         0.6190    4.9130   -1.8290 hn        1 MOL      0.259190
     94 H38        -0.8280    6.3020   -0.6790 h1        1 MOL      0.082707
     95 H39         0.4720    5.3870    1.8740 hc        1 MOL      0.071285
     96 H40        -0.6060    6.7100    1.5500 hc        1 MOL      0.071285
     97 H41         2.8250    5.4060    1.1770 ha        1 MOL      0.166552
     98 H42         0.2840    8.7180    0.1620 ha        1 MOL      0.166552
     99 H43         4.8180    6.7810    0.8270 ha        1 MOL      0.116168
    100 H44         2.3650   10.1110   -0.3060 ha        1 MOL      0.116168
    101 H45         4.6540   10.0840   -0.5570 ho        1 MOL      0.316838
    102 N10        -1.9170    3.5280    0.8020 n         1 MOL     -0.482077
    103 C34        -3.0650    2.6320    1.0480 c3        1 MOL      0.024021
    104 C35        -3.7650    2.2020   -0.2500 c         1 MOL      0.523076
    105 O15        -4.2440    1.0650   -0.3370 o         1 MOL     -0.697732
    106 C36        -4.0760    3.1330    2.2410 c3        1 MOL      0.144242
    107 C37        -3.2600    3.2280    3.5270 c3        1 MOL      0.086043
    108 C38        -5.3250    2.2730    2.6220 c3        1 MOL     -0.175538
    109 C39        -4.0480    3.5830    4.8010 c3        1 MOL     -0.251108
    110 H46        -1.0200    3.0940    0.9600 hn        1 MOL      0.263407
    111 H47        -2.6080    1.7510    1.4880 h1        1 MOL      0.140871
    112 H48        -4.4920    4.1090    1.9800 hc        1 MOL     -0.007969
    113 H49        -2.4410    3.9480    3.4620 hc        1 MOL     -0.015101
    114 H50        -2.7800    2.2530    3.5410 hc        1 MOL     -0.015101
    115 H51        -5.9850    2.7200    3.3670 hc        1 MOL      0.039143
    116 H52        -5.9720    2.2300    1.7420 hc        1 MOL      0.039143
    117 H53        -5.1410    1.2260    2.8190 hc        1 MOL      0.039143
    118 H54        -3.3230    3.8290    5.5700 hc        1 MOL      0.065875
    119 H55        -4.7340    4.4170    4.6460 hc        1 MOL      0.065875
    120 H56        -4.5950    2.7610    5.2610 hc        1 MOL      0.065875
    121 N11        -3.9420    3.0920   -1.2070 n         1 MOL     -0.382342
    122 C40        -4.5390    2.7320   -2.5220 c3        1 MOL     -0.047208
    123 C41        -6.0610    2.4170   -2.4530 c         1 MOL      0.371346
    124 O16        -6.5230    1.6900   -3.3370 o         1 MOL     -0.488256
    125 C42        -4.2680    3.9180   -3.4730 c3        1 MOL      0.203292
    126 O17        -2.8110    4.1280   -3.5140 oh        1 MOL     -0.571778
    127 H57        -3.5630    4.0170   -1.0430 hn        1 MOL      0.280065
    128 H58        -4.0210    1.8410   -2.8600 h1        1 MOL      0.101547
    129 H59        -4.7490    4.8240   -3.1130 h1        1 MOL      0.050181
    130 H60        -4.6020    3.5930   -4.4610 h1        1 MOL      0.050181
    131 H61        -2.4790    3.2900   -3.1930 ho        1 MOL      0.310293
    132 N12        -6.7910    2.7100   -1.3660 n         1 MOL     -0.297242
    133 C43        -8.1130    2.2340   -1.0450 c3        1 MOL     -0.022096
    134 C44        -8.2320    0.6730   -1.1420 c         1 MOL      0.740004
    135 O18        -9.2870    0.1740   -1.5140 o         1 MOL     -0.541834
    136 C45        -9.1860    3.0080   -1.8230 c3        1 MOL     -0.323289
    137 H62        -6.2380    3.1220   -0.6160 hn        1 MOL      0.233741
    138 H63        -8.2680    2.5670   -0.0250 h1        1 MOL      0.128168
    139 H64       -10.1900    2.6110   -1.6520 hc        1 MOL      0.097664
    140 H65        -9.3570    4.0360   -1.4930 hc        1 MOL      0.097664
    141 H66        -8.9760    3.0540   -2.8960 hc        1 MOL      0.097664
    142 N13        -7.1800   -0.0260   -0.6420 n         1 MOL     -0.964703
    143 C46        -7.2470   -1.4930   -0.4780 c3        1 MOL      0.741150
    144 C47        -6.9230   -1.9510    1.0110 c         1 MOL      0.195277
    145 O19        -6.3020   -1.2430    1.7960 o         1 MOL     -0.302358
    146 C48        -6.2550   -2.2440   -1.4420 c3        1 MOL     -0.284398
    147 H67        -6.2470    0.3690   -0.6610 hn        1 MOL      0.429445
    148 H68        -8.2290   -1.8500   -0.7760 h1        1 MOL     -0.082380
    149 H69        -5.2930   -1.7390   -1.3590 hc        1 MOL      0.068124
    150 H70        -6.0570   -3.2570   -1.1190 hc        1 MOL      0.068124
    151 H71        -6.6380   -2.3540   -2.4530 hc        1 MOL      0.068124
    152 N14        -7.2160   -3.1960    1.4310 n         1 MOL     -0.518106
    153 C49        -6.8710   -3.7840    2.8010 c3        1 MOL      0.053681
    154 C50        -7.2430   -3.0190    4.0370 c         1 MOL      0.382008
    155 O20        -6.5700   -2.9870    5.0830 o         1 MOL     -0.465701
    156 C51        -5.3250   -4.0670    2.9320 c3        1 MOL      0.108565
    157 C52        -4.6750   -4.6450    1.6110 c3        1 MOL      0.046216
    158 C53        -3.2750   -5.2450    1.7850 c         1 MOL      0.561285
    159 O21        -2.7340   -5.8010    0.7860 o         1 MOL     -0.654464
    160 O22        -2.8390   -5.3630    2.9740 o         1 MOL     -0.654464
    161 H72        -7.5710   -3.7720    0.6850 hn        1 MOL      0.278065
    162 H73        -7.3640   -4.7630    2.8390 h1        1 MOL      0.062854
    163 H74        -5.1430   -4.7550    3.7550 hc        1 MOL     -0.005928
    164 H75        -4.8230   -3.1340    3.1750 hc        1 MOL     -0.005928
    165 H76        -4.4910   -3.8320    0.9010 hc        1 MOL     -0.041022
    166 H77        -5.3310   -5.3350    1.0860 hc        1 MOL     -0.041022
    167 N15        -8.3580   -2.2740    3.8470 n         1 MOL     -0.264728
    168 C54        -8.8330   -1.2700    4.8640 c3        1 MOL     -0.304760
    169 H78        -7.9990   -0.6390    5.1680 h1        1 MOL      0.132056
    170 H79        -9.6160   -0.6510    4.4270 h1        1 MOL      0.132056
    171 H80        -9.2280   -1.7940    5.7350 h1        1 MOL      0.132056
    172 H81        -8.8720   -2.3980    2.9880 hn        1 MOL      0.240537
    173 Ca1        -0.5330   -4.7830   -0.2690 Ca        1 MOL      1.585591
    174 O23         0.9940   -5.0660   -2.6640 oh        1 MOL     -0.766868
    175 H82         1.9410   -5.2100   -2.6340 ho        1 MOL      0.383610
    176 H83         0.6520   -5.8330   -3.1040 ho        1 MOL      0.383610
    177 O24        -0.3650   -7.4380   -0.2360 oh        1 MOL     -0.766868
    178 H84        -0.9980   -8.1240   -0.4500 ho        1 MOL      0.383610
    179 H85         0.4650   -7.7630   -0.5860 ho        1 MOL      0.383610
    180 O25         2.0980   -5.6210    0.2120 oh        1 MOL     -0.766868
    181 H86         2.5700   -5.4980   -0.6170 ho        1 MOL      0.383610
    182 H87         2.2000   -6.5520    0.4060 ho        1 MOL      0.383610
    183 O26        -0.3040   -4.7790    2.3590 oh        1 MOL     -0.766868
    184 H88         0.2110   -4.3230    3.0320 ho        1 MOL      0.383610
    185 H89        -1.1130   -5.0290    2.7980 ho        1 MOL      0.383610
    186 O27        -1.7130   -2.4700    0.8990 oh        1 MOL     -0.766868
    187 H90        -0.9080   -1.9510    0.8210 ho        1 MOL      0.383610
    188 H91        -2.3450   -1.8920    1.3240 ho        1 MOL      0.383610
    189 O28        -1.9080   -6.1240   -2.3670 oh        1 MOL     -0.766868
    190 H92        -2.5050   -5.6790   -2.9650 ho        1 MOL      0.383610
    191 H93        -1.3390   -6.6390   -2.9400 ho        1 MOL      0.383610
@<TRIPOS>BOND
     1    1    2 1   
     2    1    4 1   
     3    1    5 1   
     4    1    6 1   
     5    2    3 2   
     6    2    7 1   
     7    7    8 1   
     8    7   15 1   
     9    8    9 1   
    10    8   11 1   
    11    8   16 1   
    12    9   10 2   
    13    9   19 1   
    14   11   12 1   
    15   11   17 1   
    16   11   18 1   
    17   12   13 1   
    18   12   14 1   
    19   19   20 1   
    20   19   28 1   
    21   20   21 1   
    22   20   23 1   
    23   20   29 1   
    24   21   22 2   
    25   21   41 1   
    26   23   24 1   
    27   23   30 1   
    28   23   31 1   
    29   24   25 1   
    30   24   32 1   
    31   24   33 1   
    32   25   26 1   
    33   25   34 1   
    34   25   35 1   
    35   26   27 1   
    36   26   36 1   
    37   26   37 1   
    38   27   38 1   
    39   27   39 1   
    40   27   40 1   
    41   41   42 1   
    42   41   49 1   
    43   42   43 1   
    44   42   45 1   
    45   42   50 1   
    46   43   44 2   
    47   43   53 1   
    48   45   46 1   
    49   45   51 1   
    50   45   52 1   
    51   46   47 1   
    52   46   48 1   
    53   53   54 1   
    54   53   57 1   
    55   54   55 1   
    56   54   58 1   
    57   54   59 1   
    58   55   56 2   
    59   55   60 1   
    60   60   61 1   
    61   60   68 1   
    62   61   62 1   
    63   61   64 1   
    64   61   69 1   
    65   62   63 2   
    66   62   74 1   
    67   64   65 1   
    68   64   70 1   
    69   64   71 1   
    70   65   66 1   
    71   65   67 2   
    72   66   72 1   
    73   66   73 1   
    74   74   75 1   
    75   74   78 1   
    76   75   76 1   
    77   75   79 1   
    78   75   80 1   
    79   76   77 2   
    80   76   81 1   
    81   81   82 1   
    82   81   93 1   
    83   82   83 1   
    84   82   85 1   
    85   82   94 1   
    86   83   84 2   
    87   83  102 1   
    88   85   86 1   
    89   85   95 1   
    90   85   96 1   
    91   86   87 ar  
    92   86   88 ar  
    93   87   89 ar  
    94   87   97 1   
    95   88   90 ar  
    96   88   98 1   
    97   89   91 ar  
    98   89   99 1   
    99   90   91 ar  
   100   90  100 1   
   101   91   92 1   
   102   92  101 1   
   103  102  103 1   
   104  102  110 1   
   105  103  104 1   
   106  103  106 1   
   107  103  111 1   
   108  104  105 2   
   109  104  121 1   
   110  106  107 1   
   111  106  108 1   
   112  106  112 1   
   113  107  109 1   
   114  107  113 1   
   115  107  114 1   
   116  108  115 1   
   117  108  116 1   
   118  108  117 1   
   119  109  118 1   
   120  109  119 1   
   121  109  120 1   
   122  121  122 1   
   123  121  127 1   
   124  122  123 1   
   125  122  125 1   
   126  122  128 1   
   127  123  124 2   
   128  123  132 1   
   129  125  126 1   
   130  125  129 1   
   131  125  130 1   
   132  126  131 1   
   133  132  133 1   
   134  132  137 1   
   135  133  134 1   
   136  133  136 1   
   137  133  138 1   
   138  134  135 2   
   139  134  142 1   
   140  136  139 1   
   141  136  140 1   
   142  136  141 1   
   143  142  143 1   
   144  142  147 1   
   145  143  144 1   
   146  143  146 1   
   147  143  148 1   
   148  144  145 2   
   149  144  152 1   
   150  146  149 1   
   151  146  150 1   
   152  146  151 1   
   153  152  153 1   
   154  152  161 1   
   155  153  154 1   
   156  153  156 1   
   157  153  162 1   
   158  154  155 2   
   159  154  167 1   
   160  156  157 1   
   161  156  163 1   
   162  156  164 1   
   163  157  158 1   
   164  157  165 1   
   165  157  166 1   
   166  158  159 1   
   167  158  160 1   
   168  167  168 1   
   169  167  172 1   
   170  168  169 1   
   171  168  170 1   
   172  168  171 1   
   173  174  175 1   
   174  174  176 1   
   175  177  178 1   
   176  177  179 1   
   177  180  181 1   
   178  180  182 1   
   179  183  184 1   
   180  183  185 1   
   181  186  187 1   
   182  186  188 1   
   183  189  190 1   
   184  189  191 1   
@<TRIPOS>SUBSTRUCTURE
     1 MOL         1 TEMP              0 ****  ****    0 ROOT
