@<TRIPOS>MOLECULE
MOL
  192   187     1     0     0
SMALL
resp


@<TRIPOS>ATOM
      1 C1        -11.8190   -5.2480   -3.3490 c3        1 MOL     -0.479491
      2 C2        -11.6000   -3.8810   -2.5880 c         1 MOL      0.655798
      3 O1        -12.0010   -2.8530   -3.0210 o         1 MOL     -0.580541
      4 H1        -12.8720   -5.3510   -3.6140 hc        1 MOL      0.127219
      5 H2        -11.2130   -5.2610   -4.2550 hc        1 MOL      0.127219
      6 H3        -11.5260   -6.0750   -2.7020 hc        1 MOL      0.127219
      7 N1        -10.9420   -3.9790   -1.4290 n         1 MOL     -0.103205
      8 C3        -10.8050   -2.8640   -0.4550 c3        1 MOL     -0.583847
      9 C4         -9.4720   -2.0930   -0.5220 c         1 MOL      0.756301
     10 O2         -8.4730   -2.7460   -0.3930 o         1 MOL     -0.647947
     11 C5        -11.2510   -3.2620    0.9830 c3        1 MOL      0.106840
     12 C6        -10.5510   -4.4390    1.6320 c         1 MOL      0.725864
     13 O3        -10.8470   -4.7970    2.7920 o         1 MOL     -0.707338
     14 O4         -9.6360   -5.1420    0.9950 o         1 MOL     -0.707338
     15 H4        -10.5550   -4.8720   -1.1590 hn        1 MOL      0.045554
     16 H5        -11.6270   -2.1600   -0.5880 h1        1 MOL      0.178204
     17 H6        -12.3130   -3.5190    0.9630 hc        1 MOL      0.032574
     18 H7        -11.0770   -2.3570    1.5600 hc        1 MOL      0.032574
     19 N2         -9.4090   -0.7890   -0.7520 n         1 MOL     -0.508896
     20 C7         -8.0820    0.0200   -0.8950 c3        1 MOL     -0.026407
     21 C8         -7.2970    0.1880    0.3720 c         1 MOL      0.944396
     22 O5         -7.7560    0.8930    1.2640 o         1 MOL     -0.628156
     23 C9         -8.3470    1.2950   -1.6390 c3        1 MOL     -0.233118
     24 C10        -7.1640    2.2040   -1.9020 c3        1 MOL      0.045686
     25 C11        -7.8050    3.4770   -2.5960 c3        1 MOL     -0.096286
     26 C12        -6.7200    4.5340   -2.8490 c3        1 MOL      0.198479
     27 N3         -7.2420    5.8280   -3.2430 n4        1 MOL     -0.412601
     28 H8        -10.2820   -0.2850   -0.7190 hn        1 MOL      0.301721
     29 H9         -7.4640   -0.5650   -1.5850 h1        1 MOL      0.100665
     30 H10        -9.1560    1.8790   -1.1960 hc        1 MOL      0.087217
     31 H11        -8.6280    0.9490   -2.6310 hc        1 MOL      0.087217
     32 H12        -6.3770    1.7970   -2.5420 hc        1 MOL      0.018642
     33 H13        -6.7590    2.4630   -0.9310 hc        1 MOL      0.018642
     34 H14        -8.5810    3.8250   -1.9230 hc        1 MOL      0.039717
     35 H15        -8.2550    3.2840   -3.5760 hc        1 MOL      0.039717
     36 H16        -6.1320    4.1760   -3.6960 hx        1 MOL      0.048661
     37 H17        -6.0310    4.5850   -2.0020 hx        1 MOL      0.048661
     38 H18        -7.8870    5.7610   -4.0170 hn        1 MOL      0.301099
     39 H19        -7.7500    6.2770   -2.4940 hn        1 MOL      0.301099
     40 H20        -6.5010    6.4940   -3.3900 hn        1 MOL      0.301099
     41 N4         -6.0840   -0.3440    0.3650 n         1 MOL     -0.713004
     42 C13        -5.1050   -0.3290    1.3800 c3        1 MOL      0.273096
     43 C14        -3.6710   -0.2640    0.7720 c         1 MOL      0.383979
     44 O6         -3.4980   -0.8420   -0.2920 o         1 MOL     -0.535373
     45 C15        -5.2220   -1.6220    2.2080 c3        1 MOL     -0.230783
     46 C16        -5.7440   -2.8530    1.5030 c         1 MOL      0.769944
     47 O7         -5.5870   -3.0290    0.2790 o         1 MOL     -0.730457
     48 O8         -6.5250   -3.5990    2.0830 o         1 MOL     -0.730457
     49 H21        -6.0730   -1.1400   -0.2600 hn        1 MOL      0.276899
     50 H22        -5.4420    0.4650    2.0430 h1        1 MOL      0.043483
     51 H23        -5.9440   -1.5280    3.0190 hc        1 MOL      0.065548
     52 H24        -4.3140   -1.9650    2.7250 hc        1 MOL      0.065548
     53 N5         -2.7540    0.5120    1.2770 n         1 MOL     -0.210531
     54 C17        -2.8030    1.2370    2.5540 c3        1 MOL     -0.105596
     55 C18        -3.1600    2.6950    2.3230 c         1 MOL      0.458567
     56 O9         -3.5470    3.0680    1.2290 o         1 MOL     -0.515297
     57 H25        -1.8920    0.6480    0.7690 hn        1 MOL      0.179597
     58 H26        -1.8580    1.0300    3.0410 h1        1 MOL      0.075814
     59 H27        -3.4840    0.7840    3.2750 h1        1 MOL      0.075814
     60 N6         -3.0720    3.5530    3.3130 n         1 MOL     -0.252959
     61 C19        -3.2640    5.0480    3.3280 c3        1 MOL     -0.218391
     62 C20        -2.2870    5.7660    2.3700 c         1 MOL      0.386021
     63 O10        -1.0960    5.4590    2.3890 o         1 MOL     -0.449266
     64 C21        -3.0390    5.5540    4.7580 c3        1 MOL     -0.140738
     65 C22        -3.2570    7.0670    4.8930 c         1 MOL      0.666383
     66 O11        -4.3340    7.4850    5.2540 o         1 MOL     -0.652574
     67 O12        -2.3190    7.8370    4.6340 o         1 MOL     -0.652574
     68 H28        -2.7460    3.2050    4.2030 hn        1 MOL      0.248722
     69 H29        -4.3070    5.3060    3.1160 h1        1 MOL      0.125144
     70 H30        -2.0240    5.2930    5.0220 hc        1 MOL      0.054360
     71 H31        -3.6480    4.9780    5.4610 hc        1 MOL      0.054360
     72 N7         -2.7820    6.5960    1.4590 n         1 MOL     -0.151807
     73 C23        -1.9920    7.0750    0.2830 c3        1 MOL     -0.341179
     74 C24        -1.5040    6.0270   -0.7740 c         1 MOL      0.695446
     75 O13        -1.4560    6.3120   -1.9740 o         1 MOL     -0.584768
     76 H32        -3.7970    6.6470    1.4860 hn        1 MOL      0.233306
     77 H33        -1.1720    7.6630    0.6930 h1        1 MOL      0.147840
     78 H34        -2.7370    7.6790   -0.2280 h1        1 MOL      0.147840
     79 N8         -1.1830    4.7650   -0.3580 n         1 MOL     -0.434677
     80 C25        -0.8760    3.6620   -1.3320 c3        1 MOL     -0.041820
     81 C26        -0.0750    2.5420   -0.6140 c         1 MOL      0.531890
     82 O14        -0.4800    2.2640    0.5400 o         1 MOL     -0.439804
     83 C27        -2.1260    2.8490   -1.9410 c3        1 MOL      0.575029
     84 C28        -3.2250    3.6670   -2.6870 c3        1 MOL     -0.491158
     85 O15        -1.6770    1.8510   -2.7540 oh        1 MOL     -0.679619
     86 H35        -1.3450    4.3700    0.5570 hn        1 MOL      0.215674
     87 H36        -0.2150    4.1100   -2.0720 h1        1 MOL      0.086250
     88 H37        -2.6410    2.4780   -1.0490 h1        1 MOL     -0.051666
     89 H38        -2.4190    1.2790   -2.9670 ho        1 MOL      0.432826
     90 H39        -2.9050    4.2720   -3.5360 hc        1 MOL      0.096874
     91 H40        -3.9380    2.9370   -3.0550 hc        1 MOL      0.096874
     92 H41        -3.7490    4.3170   -1.9870 hc        1 MOL      0.096874
     93 N9          1.0400    2.0170   -1.1520 n         1 MOL     -0.482083
     94 C29         1.7970    0.9050   -0.5790 c3        1 MOL     -0.162371
     95 C30         3.2940    1.1390   -0.7530 c         1 MOL      0.736380
     96 O16         4.0730    0.2450   -0.9870 o         1 MOL     -0.535306
     97 C31         1.2820   -0.4770   -1.0880 c3        1 MOL      0.364204
     98 C32         1.1570   -0.6240   -2.5290 c3        1 MOL      0.059856
     99 C33        -0.0310   -0.7640   -0.3270 c3        1 MOL     -0.435030
    100 C34         1.0350   -2.1090   -3.0520 c3        1 MOL     -0.397557
    101 H42         1.3490    2.4590   -2.0050 hn        1 MOL      0.290241
    102 H43         1.6350    0.9490    0.5000 h1        1 MOL      0.103365
    103 H44         2.0550   -1.1960   -0.7920 hc        1 MOL     -0.056928
    104 H45         1.9920   -0.0960   -3.0120 hc        1 MOL     -0.002494
    105 H46         0.2420   -0.0550   -2.7080 hc        1 MOL     -0.002494
    106 H47         0.2490   -0.8220    0.7270 hc        1 MOL      0.108010
    107 H48        -0.7960   -0.0170   -0.5530 hc        1 MOL      0.108010
    108 H49        -0.4220   -1.7100   -0.7110 hc        1 MOL      0.108010
    109 H50         2.0040   -2.5900   -2.9190 hc        1 MOL      0.102332
    110 H51         0.2550   -2.6780   -2.5340 hc        1 MOL      0.102332
    111 H52         0.9610   -2.1110   -4.1370 hc        1 MOL      0.102332
    112 N10         3.7950    2.4040   -0.4690 n         1 MOL     -0.620277
    113 C35         5.3030    2.6330   -0.2500 c3        1 MOL     -0.086468
    114 C36         6.1410    2.3820   -1.5020 c         1 MOL      0.522069
    115 O17         5.7560    2.7620   -2.6320 o         1 MOL     -0.533524
    116 C37         5.5710    4.0290    0.2910 c3        1 MOL      0.488726
    117 C38         4.9850    4.3980    1.6540 c3        1 MOL     -0.344137
    118 O18         6.9680    4.3500    0.2590 oh        1 MOL     -0.705327
    119 H53         3.2020    3.1440   -0.1490 hn        1 MOL      0.329102
    120 H54         5.4840    1.9990    0.6200 h1        1 MOL      0.114015
    121 H55         5.0940    4.7000   -0.4220 h1        1 MOL     -0.033940
    122 H56         7.1020    5.2740    0.4830 ho        1 MOL      0.424891
    123 H57         5.6070    3.7910    2.3220 hc        1 MOL      0.093962
    124 H58         5.1240    5.4550    1.8630 hc        1 MOL      0.093962
    125 H59         3.9290    4.1340    1.6930 hc        1 MOL      0.093962
    126 N11         7.2750    1.8060   -1.3910 n         1 MOL     -0.265134
    127 C39         8.3020    1.5690   -2.4390 c3        1 MOL     -0.166125
    128 C40         9.1050    0.3420   -2.1870 c         1 MOL      0.743955
    129 O19         9.2870   -0.3990   -3.1710 o         1 MOL     -0.584047
    130 C41         9.1950    2.8490   -2.5120 c3        1 MOL      0.350373
    131 C42        10.2640    2.7830   -3.5280 c3        1 MOL     -0.155376
    132 O20         9.8180    3.0780   -1.2630 oh        1 MOL     -0.629582
    133 H60         7.5720    1.5270   -0.4640 hn        1 MOL      0.187127
    134 H61         7.8120    1.5040   -3.4150 h1        1 MOL      0.131269
    135 H62         8.6280    3.7430   -2.7650 h1        1 MOL      0.014083
    136 H63         9.1050    2.9210   -0.6480 ho        1 MOL      0.367554
    137 H64        10.8760    3.6810   -3.4810 hc        1 MOL      0.037114
    138 H65        10.8480    1.8700   -3.4170 hc        1 MOL      0.037114
    139 H66         9.7890    2.7990   -4.5070 hc        1 MOL      0.037114
    140 N12         9.3470   -0.0150   -0.9380 n         1 MOL     -0.598940
    141 C43         9.9010   -1.3950   -0.6760 c3        1 MOL      0.118797
    142 C44         9.0710   -1.9940    0.4220 c         1 MOL      0.586373
    143 O21         8.4440   -1.2480    1.1920 o         1 MOL     -0.538551
    144 C45        11.3820   -1.2770   -0.1490 c3        1 MOL     -0.104882
    145 C46        12.5210   -1.0350   -1.1430 c3        1 MOL      0.042849
    146 C47        13.8980   -1.3350   -0.5240 c3        1 MOL     -0.036261
    147 C48        14.5170   -0.5580    0.5820 c3        1 MOL     -0.071206
    148 N13        14.5280    0.8880    0.3350 n4        1 MOL     -0.221421
    149 H67         9.3100    0.5620   -0.1080 hn        1 MOL      0.318404
    150 H68         9.8700   -2.0840   -1.5230 h1        1 MOL      0.071103
    151 H69        11.5130   -2.2830    0.2560 hc        1 MOL      0.027746
    152 H70        11.4110   -0.5330    0.6450 hc        1 MOL      0.027746
    153 H71        12.5240    0.0310   -1.3490 hc        1 MOL      0.010657
    154 H72        12.3810   -1.6290   -2.0520 hc        1 MOL      0.010657
    155 H73        14.5560   -1.2390   -1.3930 hc        1 MOL      0.050237
    156 H74        13.9580   -2.4040   -0.3120 hc        1 MOL      0.050237
    157 H75        15.5170   -0.9560    0.7580 hx        1 MOL      0.111036
    158 H76        13.9280   -0.7980    1.4730 hx        1 MOL      0.111036
    159 H77        13.6190    1.1450   -0.0030 hn        1 MOL      0.252974
    160 H78        14.7340    1.4200    1.1640 hn        1 MOL      0.252974
    161 H79        15.3120    1.1640   -0.2470 hn        1 MOL      0.252974
    162 N14         9.0360   -3.3440    0.5370 n         1 MOL     -0.644412
    163 C49         8.4330   -4.1930    1.6040 c3        1 MOL      0.537437
    164 C50         6.9380   -4.3520    1.5910 c         1 MOL      0.303403
    165 O22         6.3490   -4.2790    2.6640 o         1 MOL     -0.519733
    166 C51         9.0250   -5.6040    1.4510 c3        1 MOL     -0.276545
    167 C52        10.4690   -5.5940    1.9470 c3        1 MOL     -0.175771
    168 C53        10.9310   -7.0380    2.2930 c         1 MOL      0.723326
    169 O23        11.3480   -7.7940    1.3740 o         1 MOL     -0.660200
    170 O24        11.0350   -7.3560    3.4830 o         1 MOL     -0.660200
    171 H80         9.6540   -3.8240   -0.0920 hn        1 MOL      0.332726
    172 H81         8.7310   -3.7580    2.5580 h1        1 MOL     -0.000927
    173 H82         9.0110   -6.0120    0.4460 hc        1 MOL      0.093923
    174 H83         8.5220   -6.3120    2.1100 hc        1 MOL      0.093923
    175 H84        10.5480   -4.9550    2.8270 hc        1 MOL      0.012951
    176 H85        11.1410   -5.1780    1.1910 hc        1 MOL      0.012951
    177 N15         6.2140   -4.5520    0.4560 n         1 MOL     -0.331138
    178 C54         6.6400   -4.7640   -0.9370 c3        1 MOL     -0.101066
    179 H86         5.8900   -5.3590   -1.4590 h1        1 MOL      0.062686
    180 H87         6.7490   -3.8010   -1.4350 h1        1 MOL      0.062686
    181 H88         7.5940   -5.2900   -0.9500 h1        1 MOL      0.062686
    182 H89         5.2150   -4.4230    0.5430 hn        1 MOL      0.293419
    183 Ca1        -7.0880   -5.3630    0.2190 Ca        1 MOL      1.719537
    184 O25        -4.3250   -5.6010   -0.5740 oh        1 MOL     -0.867033
    185 H90        -3.7820   -6.3720   -0.7690 ho        1 MOL      0.432203
    186 H91        -3.8520   -4.8710   -0.9620 ho        1 MOL      0.432203
    187 O26        -5.8960   -7.1050    2.0510 oh        1 MOL     -0.867033
    188 H92        -5.2360   -7.6440    1.6120 ho        1 MOL      0.432203
    189 H93        -6.2720   -7.6680    2.7200 ho        1 MOL      0.432203
    190 O27        -7.3220   -4.8790   -2.5200 oh        1 MOL     -0.867033
    191 H94        -7.6580   -5.0050   -3.4070 ho        1 MOL      0.432203
    192 H95        -7.1320   -3.9450   -2.4650 ho        1 MOL      0.432203
@<TRIPOS>BOND
     1    1    2 1   
     2    1    4 1   
     3    1    5 1   
     4    1    6 1   
     5    2    3 2   
     6    2    7 1   
     7    7    8 1   
     8    7   15 1   
     9    8    9 1   
    10    8   11 1   
    11    8   16 1   
    12    9   10 2   
    13    9   19 1   
    14   11   12 1   
    15   11   17 1   
    16   11   18 1   
    17   12   13 1   
    18   12   14 1   
    19   19   20 1   
    20   19   28 1   
    21   20   21 1   
    22   20   23 1   
    23   20   29 1   
    24   21   22 2   
    25   21   41 1   
    26   23   24 1   
    27   23   30 1   
    28   23   31 1   
    29   24   25 1   
    30   24   32 1   
    31   24   33 1   
    32   25   26 1   
    33   25   34 1   
    34   25   35 1   
    35   26   27 1   
    36   26   36 1   
    37   26   37 1   
    38   27   38 1   
    39   27   39 1   
    40   27   40 1   
    41   41   42 1   
    42   41   49 1   
    43   42   43 1   
    44   42   45 1   
    45   42   50 1   
    46   43   44 2   
    47   43   53 1   
    48   45   46 1   
    49   45   51 1   
    50   45   52 1   
    51   46   47 1   
    52   46   48 1   
    53   53   54 1   
    54   53   57 1   
    55   54   55 1   
    56   54   58 1   
    57   54   59 1   
    58   55   56 2   
    59   55   60 1   
    60   60   61 1   
    61   60   68 1   
    62   61   62 1   
    63   61   64 1   
    64   61   69 1   
    65   62   63 2   
    66   62   72 1   
    67   64   65 1   
    68   64   70 1   
    69   64   71 1   
    70   65   66 1   
    71   65   67 1   
    72   72   73 1   
    73   72   76 1   
    74   73   74 1   
    75   73   77 1   
    76   73   78 1   
    77   74   75 2   
    78   74   79 1   
    79   79   80 1   
    80   79   86 1   
    81   80   81 1   
    82   80   83 1   
    83   80   87 1   
    84   81   82 2   
    85   81   93 1   
    86   83   84 1   
    87   83   85 1   
    88   83   88 1   
    89   84   90 1   
    90   84   91 1   
    91   84   92 1   
    92   85   89 1   
    93   93   94 1   
    94   93  101 1   
    95   94   95 1   
    96   94   97 1   
    97   94  102 1   
    98   95   96 2   
    99   95  112 1   
   100   97   98 1   
   101   97   99 1   
   102   97  103 1   
   103   98  100 1   
   104   98  104 1   
   105   98  105 1   
   106   99  106 1   
   107   99  107 1   
   108   99  108 1   
   109  100  109 1   
   110  100  110 1   
   111  100  111 1   
   112  112  113 1   
   113  112  119 1   
   114  113  114 1   
   115  113  116 1   
   116  113  120 1   
   117  114  115 2   
   118  114  126 1   
   119  116  117 1   
   120  116  118 1   
   121  116  121 1   
   122  117  123 1   
   123  117  124 1   
   124  117  125 1   
   125  118  122 1   
   126  126  127 1   
   127  126  133 1   
   128  127  128 1   
   129  127  130 1   
   130  127  134 1   
   131  128  129 2   
   132  128  140 1   
   133  130  131 1   
   134  130  132 1   
   135  130  135 1   
   136  131  137 1   
   137  131  138 1   
   138  131  139 1   
   139  132  136 1   
   140  140  141 1   
   141  140  149 1   
   142  141  142 1   
   143  141  144 1   
   144  141  150 1   
   145  142  143 2   
   146  142  162 1   
   147  144  145 1   
   148  144  151 1   
   149  144  152 1   
   150  145  146 1   
   151  145  153 1   
   152  145  154 1   
   153  146  147 1   
   154  146  155 1   
   155  146  156 1   
   156  147  148 1   
   157  147  157 1   
   158  147  158 1   
   159  148  159 1   
   160  148  160 1   
   161  148  161 1   
   162  162  163 1   
   163  162  171 1   
   164  163  164 1   
   165  163  166 1   
   166  163  172 1   
   167  164  165 2   
   168  164  177 1   
   169  166  167 1   
   170  166  173 1   
   171  166  174 1   
   172  167  168 1   
   173  167  175 1   
   174  167  176 1   
   175  168  169 1   
   176  168  170 1   
   177  177  178 1   
   178  177  182 1   
   179  178  179 1   
   180  178  180 1   
   181  178  181 1   
   182  184  185 1   
   183  184  186 1   
   184  187  188 1   
   185  187  189 1   
   186  190  191 1   
   187  190  192 1   
@<TRIPOS>SUBSTRUCTURE
     1 MOL         1 TEMP              0 ****  ****    0 ROOT
