@<TRIPOS>MOLECULE
MOL
  175   173     1     0     0
SMALL
resp


@<TRIPOS>ATOM
      1 C1         -6.4430    8.3350    1.8520 c3        1 MOL     -0.308141
      2 C2         -7.2600    7.4240    0.9250 c         1 MOL      0.641394
      3 O1         -7.8840    7.9000   -0.0140 o         1 MOL     -0.553861
      4 H1         -6.9890    8.4870    2.7830 hc        1 MOL      0.075354
      5 H2         -5.4820    7.8690    2.0660 hc        1 MOL      0.075354
      6 H3         -6.2810    9.2970    1.3650 hc        1 MOL      0.075354
      7 N1         -7.5200    6.1520    1.3540 n         1 MOL     -0.555329
      8 C3         -8.5080    5.1740    0.7160 c3        1 MOL      0.460028
      9 C4         -7.8110    3.9450    0.0330 c         1 MOL      0.412046
     10 O2         -8.4780    2.9100   -0.1070 o         1 MOL     -0.498238
     11 C5         -9.6750    4.7360    1.5790 c3        1 MOL     -0.374072
     12 C6        -10.9890    4.3290    0.8680 c         1 MOL      0.726681
     13 O3        -11.8010    3.5280    1.3720 o         1 MOL     -0.721249
     14 O4        -11.2820    4.7590   -0.2940 o         1 MOL     -0.721249
     15 H4         -7.1700    5.7760    2.2320 hn        1 MOL      0.257718
     16 H5         -8.9550    5.7010   -0.1310 h1        1 MOL     -0.030754
     17 H6         -9.9630    5.5740    2.2190 hc        1 MOL      0.045363
     18 H7         -9.4230    3.9710    2.3090 hc        1 MOL      0.045363
     19 N2         -6.5700    4.0730   -0.4090 n         1 MOL     -0.531387
     20 C7         -5.8190    3.1190   -1.1600 c3        1 MOL      0.387742
     21 C8         -4.9440    2.2920   -0.1710 c         1 MOL      0.518866
     22 O5         -4.4340    2.9540    0.7240 o         1 MOL     -0.547385
     23 C9         -4.9890    3.8700   -2.2050 c3        1 MOL     -0.319407
     24 H8         -6.0730    4.8670   -0.0500 hn        1 MOL      0.223444
     25 H9         -6.5580    2.5200   -1.6840 h1        1 MOL      0.041414
     26 H10        -5.6050    4.3220   -2.9830 hc        1 MOL      0.081592
     27 H11        -4.2820    4.5930   -1.7830 hc        1 MOL      0.081592
     28 H12        -4.4040    3.1480   -2.7690 hc        1 MOL      0.081592
     29 N3         -4.6540    0.9740   -0.2110 n         1 MOL     -0.486155
     30 C10        -5.3150    0.0470   -1.1600 c3        1 MOL     -0.089837
     31 C11        -5.4410   -1.3150   -0.3990 c         1 MOL      0.545078
     32 O6         -4.5380   -1.7820    0.3650 o         1 MOL     -0.549540
     33 C12        -4.4570   -0.1200   -2.4190 c3        1 MOL     -0.162310
     34 C13        -2.9840   -0.5260   -2.3140 c         1 MOL      0.834008
     35 O7         -2.6100   -1.6680   -2.2840 o         1 MOL     -0.775721
     36 O8         -2.0970    0.3090   -2.3170 o         1 MOL     -0.775721
     37 H13        -3.8930    0.6650    0.3760 hn        1 MOL      0.316977
     38 H14        -6.2770    0.5020   -1.4050 h1        1 MOL      0.071059
     39 H15        -4.4530    0.8080   -2.9900 hc        1 MOL      0.037109
     40 H16        -4.8890   -0.7670   -3.1850 hc        1 MOL      0.037109
     41 N4         -6.5240   -2.0270   -0.5820 n         1 MOL     -0.376333
     42 C14        -6.7980   -3.4550   -0.1860 c3        1 MOL      0.063296
     43 C15        -6.6760   -4.3390   -1.4390 c         1 MOL      0.509599
     44 O9         -7.6040   -4.5270   -2.1700 o         1 MOL     -0.546446
     45 H17        -7.2710   -1.5990   -1.0970 hn        1 MOL      0.293416
     46 H18        -7.7940   -3.5870    0.2310 h1        1 MOL      0.037115
     47 H19        -6.0340   -3.6870    0.5570 h1        1 MOL      0.037115
     48 N5         -5.5140   -4.9200   -1.7720 n         1 MOL     -0.441477
     49 C16        -4.1890   -4.7010   -1.1080 c3        1 MOL      0.025761
     50 C17        -3.9540   -5.3830    0.3100 c         1 MOL      0.445967
     51 O10        -3.8700   -6.6290    0.4390 o         1 MOL     -0.535901
     52 C18        -3.0850   -5.0580   -2.0580 c3        1 MOL     -0.050614
     53 C19        -1.7180   -4.5510   -1.6990 c         1 MOL      0.536534
     54 N6         -0.7530   -4.8580   -2.5670 n         1 MOL     -0.685868
     55 O11        -1.5680   -3.8130   -0.7640 o         1 MOL     -0.473109
     56 H20        -5.5730   -5.5940   -2.5160 hn        1 MOL      0.298925
     57 H21        -4.1190   -3.6190   -1.0430 h1        1 MOL      0.071881
     58 H22        -3.2710   -4.7230   -3.0860 hc        1 MOL      0.029345
     59 H23        -3.0950   -6.1420   -2.0870 hc        1 MOL      0.029345
     60 H24        -0.9320   -5.3760   -3.4190 hn        1 MOL      0.328714
     61 H25         0.1350   -4.4030   -2.4150 hn        1 MOL      0.328714
     62 N7         -3.8500   -4.5940    1.3690 n         1 MOL     -0.201373
     63 C20        -3.4640   -5.1700    2.6390 c3        1 MOL     -0.254307
     64 C21        -1.9860   -5.4270    2.8760 c         1 MOL      0.454252
     65 O12        -1.6040   -5.9310    3.9250 o         1 MOL     -0.545273
     66 H26        -3.9820   -3.6010    1.2110 hn        1 MOL      0.259108
     67 H27        -3.9000   -6.1610    2.8060 h1        1 MOL      0.127396
     68 H28        -3.9520   -4.6080    3.4440 h1        1 MOL      0.127396
     69 N8         -1.0970   -4.9370    2.0120 n         1 MOL     -0.079618
     70 C22         0.3330   -5.0870    2.1670 c3        1 MOL     -0.248889
     71 C23         1.1410   -3.7800    1.8870 c         1 MOL      0.706735
     72 O13         0.6940   -3.0180    1.0500 o         1 MOL     -0.667319
     73 C24         0.9130   -6.1690    1.3070 c3        1 MOL      0.463894
     74 C25         0.2210   -7.5330    1.6900 c3        1 MOL     -0.363885
     75 O14         0.6840   -5.8890   -0.0780 oh        1 MOL     -0.649310
     76 H29        -1.3130   -4.3220    1.2320 hn        1 MOL      0.109203
     77 H30         0.5610   -5.2690    3.2230 h1        1 MOL      0.053066
     78 H31         1.9650   -6.2710    1.5480 h1        1 MOL     -0.048340
     79 H32         1.1050   -5.0440   -0.2260 ho        1 MOL      0.457967
     80 H33         0.1360   -7.6750    2.7610 hc        1 MOL      0.098620
     81 H34        -0.7750   -7.5840    1.2560 hc        1 MOL      0.098620
     82 H35         0.6970   -8.4610    1.3590 hc        1 MOL      0.098620
     83 N9          2.2870   -3.5990    2.4590 n         1 MOL     -0.543109
     84 C26         3.2130   -2.4690    2.2730 c3        1 MOL     -0.010969
     85 C27         3.9800   -2.8630    0.9400 c         1 MOL      0.584955
     86 O15         4.7330   -3.8030    0.9940 o         1 MOL     -0.575456
     87 C28         4.1360   -2.2700    3.4970 c3        1 MOL      0.298191
     88 C29         5.2160   -1.2240    3.1290 c3        1 MOL      0.097173
     89 C30         3.3880   -2.0280    4.8040 c3        1 MOL     -0.450709
     90 C31         4.7580    0.2650    2.9750 c3        1 MOL     -0.344860
     91 H36         2.6480   -4.3220    3.0720 hn        1 MOL      0.306920
     92 H37         2.6720   -1.5490    2.0360 h1        1 MOL      0.098731
     93 H38         4.7420   -3.1620    3.6450 hc        1 MOL     -0.048768
     94 H39         5.8530   -1.5820    2.3220 hc        1 MOL     -0.014215
     95 H40         5.8750   -1.2910    3.9960 hc        1 MOL     -0.014215
     96 H41         2.7230   -1.1830    4.6060 hc        1 MOL      0.109519
     97 H42         2.9210   -2.9840    5.0250 hc        1 MOL      0.109519
     98 H43         4.0430   -1.8520    5.6520 hc        1 MOL      0.109519
     99 H44         5.4340    0.8950    3.5640 hc        1 MOL      0.073683
    100 H45         4.6880    0.4940    1.9190 hc        1 MOL      0.073683
    101 H46         3.7880    0.3730    3.4660 hc        1 MOL      0.073683
    102 N10         3.9130   -2.0690   -0.1440 n         1 MOL     -0.481261
    103 C32         4.5880   -2.3040   -1.4690 c3        1 MOL      0.032563
    104 C33         5.5990   -1.3080   -1.9740 c         1 MOL      0.532804
    105 O16         6.1230   -1.5050   -3.0500 o         1 MOL     -0.536010
    106 C34         3.6060   -2.6270   -2.5340 c3        1 MOL     -0.054682
    107 C35         2.5210   -3.6150   -2.0630 c         1 MOL      0.640764
    108 O17         2.8340   -4.8270   -2.0610 o         1 MOL     -0.645130
    109 O18         1.3720   -3.1980   -1.8330 o         1 MOL     -0.645130
    110 H47         3.3790   -1.2150   -0.1140 hn        1 MOL      0.269791
    111 H48         5.0570   -3.2930   -1.5140 h1        1 MOL      0.100068
    112 H49         4.0980   -2.9600   -3.4500 hc        1 MOL     -0.005355
    113 H50         3.0600   -1.7020   -2.7480 hc        1 MOL     -0.005355
    114 N11         5.9200   -0.2560   -1.1670 n         1 MOL     -0.468910
    115 C36         6.7020    0.8890   -1.6490 c3        1 MOL      0.338846
    116 C37         6.3240    2.2890   -1.0260 c         1 MOL      0.328311
    117 O19         5.8990    2.2850    0.1540 o         1 MOL     -0.418402
    118 C38         8.2530    0.6650   -1.5660 c3        1 MOL     -0.425665
    119 C39         8.8720    1.2300   -0.2700 ca        1 MOL      0.081371
    120 C40         8.4100    0.8290    1.0160 ca        1 MOL     -0.063967
    121 C41         9.8930    2.2000   -0.3490 ca        1 MOL     -0.063967
    122 C42         9.0010    1.3860    2.1480 ca        1 MOL     -0.225303
    123 C43        10.4900    2.7720    0.7900 ca        1 MOL     -0.225303
    124 C44         9.9930    2.3270    2.0440 ca        1 MOL     -0.013154
    125 H51         5.4710   -0.1810   -0.2660 hn        1 MOL      0.280973
    126 H52         6.3880    0.9600   -2.6960 h1        1 MOL     -0.006934
    127 H53         8.7050    1.1390   -2.4430 hc        1 MOL      0.143433
    128 H54         8.3500   -0.4210   -1.5880 hc        1 MOL      0.143433
    129 H55         7.6030    0.1070    1.0680 ha        1 MOL      0.084445
    130 H56        10.2550    2.5180   -1.3070 ha        1 MOL      0.084445
    131 H57         8.7190    1.0200    3.1220 ha        1 MOL      0.134636
    132 H58        11.2770    3.5000    0.7150 ha        1 MOL      0.134636
    133 H59        10.5060    2.6540    2.9350 ha        1 MOL      0.079456
    134 N12         6.3780    3.4120   -1.7510 n         1 MOL     -0.079369
    135 C45         6.3030    4.7890   -1.3340 c3        1 MOL      0.007935
    136 C46         5.0910    5.2020   -0.4630 c         1 MOL      0.391641
    137 O20         4.9910    6.3600   -0.0080 o         1 MOL     -0.532698
    138 C47         6.3960    5.6230   -2.6210 c3        1 MOL     -0.131606
    139 C48         7.2710    4.7290   -3.5110 c3        1 MOL     -0.014846
    140 C49         6.6470    3.3810   -3.1380 c3        1 MOL     -0.112522
    141 H60         7.2050    4.7960   -0.7190 h1        1 MOL      0.055965
    142 H61         5.4190    5.7630   -3.0840 hc        1 MOL      0.082392
    143 H62         6.7960    6.6060   -2.3840 hc        1 MOL      0.082392
    144 H63         7.1680    4.8980   -4.5840 hc        1 MOL      0.037925
    145 H64         8.3380    4.8060   -3.2590 hc        1 MOL      0.037925
    146 H65         5.7190    3.1150   -3.6430 h1        1 MOL      0.062697
    147 H66         7.3820    2.6040   -3.3280 h1        1 MOL      0.062697
    148 N13         4.1380    4.3170   -0.3660 n         1 MOL     -0.270986
    149 C50         2.7830    4.6010    0.2230 c3        1 MOL     -0.089256
    150 C51         2.8660    5.0030    1.7200 c         1 MOL      0.454437
    151 O21         1.9520    5.5820    2.3220 o         1 MOL     -0.531691
    152 C52         1.9020    3.4180   -0.2540 c3        1 MOL      0.002418
    153 C53         2.0730    2.2050    0.6490 c3        1 MOL     -0.179080
    154 C54         1.3180    0.9390    0.1450 c         1 MOL      0.640519
    155 O22         1.9850    0.0320   -0.3780 o         1 MOL     -0.685627
    156 O23         0.0820    0.8900    0.1360 o         1 MOL     -0.685627
    157 H67         4.3820    3.4050   -0.7220 hn        1 MOL      0.202526
    158 H68         2.3170    5.4530   -0.2610 h1        1 MOL      0.120780
    159 H69         2.1900    3.1310   -1.2690 hc        1 MOL      0.053454
    160 H70         0.8570    3.7070   -0.2680 hc        1 MOL      0.053454
    161 H71         1.6290    2.3610    1.6360 hc        1 MOL      0.051617
    162 H72         3.0980    1.8650    0.7630 hc        1 MOL      0.051617
    163 N14         3.9650    4.7300    2.3840 n         1 MOL     -0.141278
    164 C55         4.2490    5.0640    3.7520 c3        1 MOL     -0.175738
    165 H73         3.3210    5.3280    4.2600 h1        1 MOL      0.084444
    166 H74         4.7040    4.2080    4.2480 h1        1 MOL      0.084444
    167 H75         4.9340    5.9110    3.7850 h1        1 MOL      0.084444
    168 H76         4.6480    4.1660    1.8880 hn        1 MOL      0.178155
    169 Ca1        -0.3110   -1.3980   -1.1220 Ca        1 MOL      1.746840
    170 O24         0.3150   -0.9580   -3.5270 oh        1 MOL     -0.879025
    171 H77         0.6350   -0.1090   -3.8090 ho        1 MOL      0.426127
    172 H78         0.0740   -1.4070   -4.3340 ho        1 MOL      0.426127
    173 O25        -1.7660   -1.1430    1.0020 oh        1 MOL     -0.879025
    174 H79        -2.3820   -1.7700    1.3750 ho        1 MOL      0.426127
    175 H80        -1.9120   -0.3280    1.4870 ho        1 MOL      0.426127
@<TRIPOS>BOND
     1    1    2 1   
     2    1    4 1   
     3    1    5 1   
     4    1    6 1   
     5    2    3 2   
     6    2    7 1   
     7    7    8 1   
     8    7   15 1   
     9    8    9 1   
    10    8   11 1   
    11    8   16 1   
    12    9   10 2   
    13    9   19 1   
    14   11   12 1   
    15   11   17 1   
    16   11   18 1   
    17   12   13 1   
    18   12   14 1   
    19   19   20 1   
    20   19   24 1   
    21   20   21 1   
    22   20   23 1   
    23   20   25 1   
    24   21   22 2   
    25   21   29 1   
    26   23   26 1   
    27   23   27 1   
    28   23   28 1   
    29   29   30 1   
    30   29   37 1   
    31   30   31 1   
    32   30   33 1   
    33   30   38 1   
    34   31   32 2   
    35   31   41 1   
    36   33   34 1   
    37   33   39 1   
    38   33   40 1   
    39   34   35 1   
    40   34   36 1   
    41   41   42 1   
    42   41   45 1   
    43   42   43 1   
    44   42   46 1   
    45   42   47 1   
    46   43   44 2   
    47   43   48 1   
    48   48   49 1   
    49   48   56 1   
    50   49   50 1   
    51   49   52 1   
    52   49   57 1   
    53   50   51 2   
    54   50   62 1   
    55   52   53 1   
    56   52   58 1   
    57   52   59 1   
    58   53   54 1   
    59   53   55 2   
    60   54   60 1   
    61   54   61 1   
    62   62   63 1   
    63   62   66 1   
    64   63   64 1   
    65   63   67 1   
    66   63   68 1   
    67   64   65 2   
    68   64   69 1   
    69   69   70 1   
    70   69   76 1   
    71   70   71 1   
    72   70   73 1   
    73   70   77 1   
    74   71   72 2   
    75   71   83 1   
    76   73   74 1   
    77   73   75 1   
    78   73   78 1   
    79   74   80 1   
    80   74   81 1   
    81   74   82 1   
    82   75   79 1   
    83   83   84 1   
    84   83   91 1   
    85   84   85 1   
    86   84   87 1   
    87   84   92 1   
    88   85   86 2   
    89   85  102 1   
    90   87   88 1   
    91   87   89 1   
    92   87   93 1   
    93   88   90 1   
    94   88   94 1   
    95   88   95 1   
    96   89   96 1   
    97   89   97 1   
    98   89   98 1   
    99   90   99 1   
   100   90  100 1   
   101   90  101 1   
   102  102  103 1   
   103  102  110 1   
   104  103  104 1   
   105  103  106 1   
   106  103  111 1   
   107  104  105 2   
   108  104  114 1   
   109  106  107 1   
   110  106  112 1   
   111  106  113 1   
   112  107  108 1   
   113  107  109 1   
   114  114  115 1   
   115  114  125 1   
   116  115  116 1   
   117  115  118 1   
   118  115  126 1   
   119  116  117 2   
   120  116  134 1   
   121  118  119 1   
   122  118  127 1   
   123  118  128 1   
   124  119  120 ar  
   125  119  121 ar  
   126  120  122 ar  
   127  120  129 1   
   128  121  123 ar  
   129  121  130 1   
   130  122  124 ar  
   131  122  131 1   
   132  123  124 ar  
   133  123  132 1   
   134  124  133 1   
   135  134  135 1   
   136  134  140 1   
   137  135  136 1   
   138  135  138 1   
   139  135  141 1   
   140  136  137 2   
   141  136  148 1   
   142  138  139 1   
   143  138  142 1   
   144  138  143 1   
   145  139  140 1   
   146  139  144 1   
   147  139  145 1   
   148  140  146 1   
   149  140  147 1   
   150  148  149 1   
   151  148  157 1   
   152  149  150 1   
   153  149  152 1   
   154  149  158 1   
   155  150  151 2   
   156  150  163 1   
   157  152  153 1   
   158  152  159 1   
   159  152  160 1   
   160  153  154 1   
   161  153  161 1   
   162  153  162 1   
   163  154  155 1   
   164  154  156 1   
   165  163  164 1   
   166  163  168 1   
   167  164  165 1   
   168  164  166 1   
   169  164  167 1   
   170  170  171 1   
   171  170  172 1   
   172  173  174 1   
   173  173  175 1   
@<TRIPOS>SUBSTRUCTURE
     1 MOL         1 TEMP              0 ****  ****    0 ROOT
