@<TRIPOS>MOLECULE
MOL
  179   176     1     0     0
SMALL
resp


@<TRIPOS>ATOM
      1 C1         -3.2620   -1.0300    6.4260 c3        1 MOL     -0.326116
      2 C2         -2.9020   -1.1700    4.8710 c         1 MOL      0.778786
      3 O1         -3.7500   -0.8180    4.0840 o         1 MOL     -0.594248
      4 H1         -2.9700   -0.0410    6.7790 hc        1 MOL      0.086697
      5 H2         -4.3350   -1.1630    6.5650 hc        1 MOL      0.086697
      6 H3         -2.7240   -1.7900    6.9940 hc        1 MOL      0.086697
      7 N1         -1.7390   -1.5920    4.4390 n         1 MOL     -0.685615
      8 C3         -1.2520   -1.7680    3.0590 c3        1 MOL     -0.011184
      9 C4         -1.8690   -3.0490    2.3750 c         1 MOL      0.688790
     10 O2         -1.6600   -4.1630    2.8600 o         1 MOL     -0.576074
     11 C5          0.2900   -1.8430    2.9870 c3        1 MOL      0.202872
     12 C6          0.8170   -1.7030    1.5940 c         1 MOL      0.443722
     13 O3          2.0640   -1.4820    1.3640 o         1 MOL     -0.720030
     14 O4          0.0410   -1.7410    0.6240 o         1 MOL     -0.720030
     15 H4         -1.0340   -1.7790    5.1390 hn        1 MOL      0.326429
     16 H5         -1.5840   -0.9370    2.4290 h1        1 MOL      0.007644
     17 H6          0.6400   -2.7570    3.4610 hc        1 MOL     -0.022120
     18 H7          0.7540   -1.0280    3.5510 hc        1 MOL     -0.022120
     19 N2         -2.3880   -2.9360    1.1800 n         1 MOL     -0.509706
     20 C7         -2.9230   -4.0050    0.3490 c3        1 MOL      0.086231
     21 C8         -1.8910   -4.9150   -0.4120 c         1 MOL      0.528744
     22 O5         -2.1550   -6.1080   -0.5010 o         1 MOL     -0.544799
     23 C9         -4.0060   -3.4240   -0.5530 c3        1 MOL      0.017243
     24 C10        -5.0210   -4.4010   -1.0120 c3        1 MOL     -0.022462
     25 C11        -6.0100   -3.7550   -2.0120 c3        1 MOL     -0.097504
     26 C12        -7.2460   -4.5240   -2.2350 c3        1 MOL     -0.056335
     27 N3         -8.2800   -3.7280   -2.9750 n4        1 MOL     -0.102984
     28 H8         -2.3170   -1.9900    0.8170 hn        1 MOL      0.305790
     29 H9         -3.3260   -4.7790    1.0060 h1        1 MOL      0.063502
     30 H10        -3.5270   -2.9430   -1.4090 hc        1 MOL      0.023847
     31 H11        -4.5120   -2.6890    0.0690 hc        1 MOL      0.023847
     32 H12        -5.5500   -4.8160   -0.1500 hc        1 MOL      0.034910
     33 H13        -4.4840   -5.2180   -1.5100 hc        1 MOL      0.034910
     34 H14        -5.5790   -3.3460   -2.9190 hc        1 MOL      0.047478
     35 H15        -6.3750   -2.8570   -1.5180 hc        1 MOL      0.047478
     36 H16        -7.6570   -4.7960   -1.2740 hx        1 MOL      0.103172
     37 H17        -6.9410   -5.4460   -2.7290 hx        1 MOL      0.103172
     38 H18        -8.4890   -2.8090   -2.6320 hn        1 MOL      0.253588
     39 H19        -8.0340   -3.6010   -3.9550 hn        1 MOL      0.253588
     40 H20        -9.1420   -4.2340   -3.0670 hn        1 MOL      0.253588
     41 N4         -0.8670   -4.2880   -0.9400 n         1 MOL     -0.353171
     42 C13         0.2130   -4.9920   -1.6080 c3        1 MOL      0.027883
     43 C14         1.3220   -5.4090   -0.5930 c         1 MOL      0.387714
     44 O6          1.7720   -6.5510   -0.5860 o         1 MOL     -0.511545
     45 C15         0.7700   -4.1900   -2.8060 c3        1 MOL     -0.427813
     46 C16         1.0920   -2.7730   -2.3690 c         1 MOL      0.971294
     47 O7          2.0860   -2.5040   -1.7360 o         1 MOL     -0.875080
     48 O8          0.3560   -1.8430   -2.7040 o         1 MOL     -0.875080
     49 H21        -0.8400   -3.2770   -0.8800 hn        1 MOL      0.264658
     50 H22        -0.2420   -5.9020   -2.0050 h1        1 MOL      0.100091
     51 H23         0.0620   -4.1740   -3.6390 hc        1 MOL      0.133217
     52 H24         1.7210   -4.5380   -3.2220 hc        1 MOL      0.133217
     53 N5          1.6280   -4.5330    0.3640 n         1 MOL      0.065689
     54 C17         2.6430   -4.7130    1.4460 c3        1 MOL     -0.320526
     55 C18         4.0620   -4.6480    0.8990 c         1 MOL      0.728742
     56 O9          5.0110   -5.1860    1.4540 o         1 MOL     -0.568445
     57 H25         1.2310   -3.6080    0.3100 hn        1 MOL      0.029261
     58 H26         2.4470   -5.7200    1.8130 h1        1 MOL      0.129610
     59 H27         2.5270   -3.9920    2.2610 h1        1 MOL      0.129610
     60 N6          4.2150   -3.8440   -0.1810 n         1 MOL     -0.619028
     61 C19         5.5470   -3.4190   -0.7200 c3        1 MOL      0.453330
     62 C20         5.5350   -1.8640   -0.9940 c         1 MOL      0.223034
     63 O10         4.4820   -1.2360   -1.0490 o         1 MOL     -0.266017
     64 C21         5.9680   -4.2120   -1.9380 c3        1 MOL     -0.490884
     65 C22         6.3060   -5.6460   -1.6140 c         1 MOL      0.757692
     66 N7          7.4890   -6.0950   -1.5470 n         1 MOL     -0.808879
     67 O11         5.4520   -6.5010   -1.5090 o         1 MOL     -0.543123
     68 H28         3.4480   -3.2970   -0.5430 hn        1 MOL      0.360578
     69 H29         6.2790   -3.6520    0.0570 h1        1 MOL     -0.035691
     70 H30         6.8640   -3.6850   -2.2770 hc        1 MOL      0.116386
     71 H31         5.1680   -4.3430   -2.6610 hc        1 MOL      0.116386
     72 H32         8.2680   -5.4940   -1.3460 hn        1 MOL      0.356757
     73 H33         7.5900   -7.0710   -1.3010 hn        1 MOL      0.356757
     74 N8          6.6640   -1.2210   -1.3930 n         1 MOL     -0.332917
     75 C23         6.6830    0.2240   -1.6930 c3        1 MOL     -0.117333
     76 C24         6.0960    1.1180   -0.5700 c         1 MOL      0.595774
     77 O12         6.5470    0.9920    0.5970 o         1 MOL     -0.513745
     78 H34         7.4960   -1.7940   -1.4510 hn        1 MOL      0.275953
     79 H35         6.0860    0.3910   -2.5980 h1        1 MOL      0.078647
     80 H36         7.6820    0.6020   -1.9170 h1        1 MOL      0.078647
     81 N9          5.3300    2.1100   -0.9800 n         1 MOL     -0.590374
     82 C25         4.7540    3.0670   -0.0240 c3        1 MOL      0.205410
     83 C26         3.6440    2.3550    0.7900 c         1 MOL      0.509651
     84 O13         3.2930    1.1830    0.5210 o         1 MOL     -0.519664
     85 C27         4.1780    4.2280   -0.8170 c3        1 MOL     -0.112327
     86 C28         5.2090    5.2510   -1.2030 ca        1 MOL      0.193739
     87 C29         5.2600    6.4780   -0.5320 ca        1 MOL     -0.250394
     88 C30         5.9750    5.0890   -2.3210 ca        1 MOL     -0.250394
     89 C31         5.9860    7.5810   -1.0290 ca        1 MOL     -0.155511
     90 C32         6.6820    6.1550   -2.8700 ca        1 MOL     -0.155511
     91 C33         6.7160    7.4180   -2.2710 ca        1 MOL      0.210710
     92 O14         7.5000    8.4640   -2.7150 oh        1 MOL     -0.426971
     93 H37         4.9720    2.1720   -1.9130 hn        1 MOL      0.282495
     94 H38         5.4270    3.5930    0.6620 h1        1 MOL      0.049022
     95 H39         3.3710    4.7730   -0.3260 hc        1 MOL      0.000786
     96 H40         3.7900    3.7400   -1.7060 hc        1 MOL      0.000786
     97 H41         4.5810    6.6490    0.2790 ha        1 MOL      0.136531
     98 H42         6.0220    4.1140   -2.7930 ha        1 MOL      0.136531
     99 H43         6.0830    8.4990   -0.4760 ha        1 MOL      0.138204
    100 H44         7.1980    5.9630   -3.7960 ha        1 MOL      0.138204
    101 H45         8.1060    8.1050   -3.3600 ho        1 MOL      0.346332
    102 N10         3.1870    3.0970    1.8070 n         1 MOL     -0.554574
    103 C34         2.2190    2.6620    2.8610 c3        1 MOL      0.167681
    104 C35         0.8280    2.1000    2.3570 c         1 MOL      0.228004
    105 O15         0.7980    1.3080    1.4380 o         1 MOL     -0.304903
    106 C36         2.9780    1.6450    3.8620 c3        1 MOL      0.267232
    107 C37         2.0860    1.2310    5.0270 c3        1 MOL     -0.164740
    108 C38         4.2990    2.1570    4.3720 c3        1 MOL     -0.216235
    109 C39         1.7290    2.2850    5.9850 c3        1 MOL     -0.380356
    110 H46         3.5560    4.0380    1.8170 hn        1 MOL      0.305931
    111 H47         2.0260    3.5860    3.4090 h1        1 MOL      0.042480
    112 H48         3.2140    0.7090    3.3640 hc        1 MOL      0.021284
    113 H49         2.5820    0.3820    5.4860 hc        1 MOL      0.096447
    114 H50         1.1810    0.7740    4.6200 hc        1 MOL      0.096447
    115 H51         5.0680    2.1020    3.6050 hc        1 MOL      0.046595
    116 H52         4.1700    3.2230    4.5800 hc        1 MOL      0.046595
    117 H53         4.5680    1.6350    5.2870 hc        1 MOL      0.046595
    118 H54         1.1050    1.9240    6.7960 hc        1 MOL      0.100254
    119 H55         2.6390    2.6140    6.4830 hc        1 MOL      0.100254
    120 H56         1.2870    3.0530    5.3430 hc        1 MOL      0.100254
    121 N11        -0.2580    2.6150    2.9040 n         1 MOL     -0.480979
    122 C40        -1.6370    2.0230    2.9350 c3        1 MOL     -0.035966
    123 C41        -2.3820    2.0530    1.5570 c         1 MOL      0.393314
    124 O16        -3.3780    1.3290    1.4090 o         1 MOL     -0.478606
    125 C42        -2.5200    2.7260    3.9640 c3        1 MOL      0.077312
    126 O17        -1.8460    2.7370    5.1780 oh        1 MOL     -0.626329
    127 H57         0.0260    3.2800    3.5980 hn        1 MOL      0.294047
    128 H58        -1.5160    1.0130    3.3320 h1        1 MOL      0.272232
    129 H59        -3.4310    2.1600    4.1860 h1        1 MOL      0.103061
    130 H60        -2.8660    3.7140    3.6750 h1        1 MOL      0.103061
    131 H61        -1.6200    3.6300    5.4450 ho        1 MOL      0.406817
    132 N12        -1.8560    2.7460    0.5320 n         1 MOL     -0.391917
    133 C43        -2.4000    2.4500   -0.8270 c3        1 MOL      0.008913
    134 C44        -1.9160    1.0770   -1.5000 c         1 MOL      0.759227
    135 O18        -0.7700    0.6880   -1.3700 o         1 MOL     -0.617486
    136 C45        -2.0240    3.6430   -1.7150 c3        1 MOL     -0.352614
    137 H62        -0.9640    3.1960    0.6670 hn        1 MOL      0.270991
    138 H63        -3.4630    2.6360   -0.6800 h1        1 MOL      0.143130
    139 H64        -2.5400    3.5270   -2.6700 hc        1 MOL      0.093340
    140 H65        -2.2830    4.6140   -1.3020 hc        1 MOL      0.093340
    141 H66        -0.9580    3.6720   -1.9000 hc        1 MOL      0.093340
    142 N13        -2.7490    0.3990   -2.2640 n         1 MOL     -0.683655
    143 C46        -4.1940    0.6710   -2.4430 c3        1 MOL      0.016726
    144 C47        -4.6100    1.9920   -3.1910 c         1 MOL      0.888466
    145 O19        -4.0360    2.3350   -4.2140 o         1 MOL     -0.626179
    146 C48        -4.7360   -0.5400   -3.1680 c3        1 MOL     -0.194571
    147 H67        -2.4170   -0.4840   -2.6160 hn        1 MOL      0.421320
    148 H68        -4.5960    0.6640   -1.4300 h1        1 MOL      0.115462
    149 H69        -5.8050   -0.6650   -2.9690 hc        1 MOL      0.056615
    150 H70        -4.7800   -0.3490   -4.2360 hc        1 MOL      0.056615
    151 H71        -4.1330   -1.4200   -2.9600 hc        1 MOL      0.056615
    152 N14        -5.4910    2.8900   -2.7600 n         1 MOL     -0.969826
    153 C49        -6.1540    2.9720   -1.3970 c3        1 MOL      0.368969
    154 C50        -6.2380    4.4010   -0.8350 c         1 MOL      0.503979
    155 O20        -6.0340    4.6090    0.3370 o         1 MOL     -0.520684
    156 C51        -7.4660    2.2370   -1.5350 c3        1 MOL     -0.127813
    157 C52        -8.0130    1.9110   -0.1460 c3        1 MOL     -0.320994
    158 C53        -9.2370    0.9590   -0.3080 c         1 MOL      0.747860
    159 O21        -9.2040   -0.1510    0.2100 o         1 MOL     -0.713088
    160 O22       -10.3590    1.3580   -0.7770 o         1 MOL     -0.713088
    161 H72        -5.7970    3.4220   -3.5610 hn        1 MOL      0.401539
    162 H73        -5.5770    2.4660   -0.6150 h1        1 MOL      0.001951
    163 H74        -7.1700    1.3320   -2.0660 hc        1 MOL      0.019524
    164 H75        -8.1700    2.8480   -2.0830 hc        1 MOL      0.019524
    165 H76        -8.2860    2.8650    0.3070 hc        1 MOL      0.091393
    166 H77        -7.1560    1.4860    0.3790 hc        1 MOL      0.091393
    167 N15        -6.5730    5.3850   -1.7010 n         1 MOL     -0.348515
    168 C54        -6.8680    6.7130   -1.1450 c3        1 MOL     -0.123257
    169 H78        -5.9520    7.3040   -1.1100 h1        1 MOL      0.084638
    170 H79        -7.6000    7.2170   -1.7760 h1        1 MOL      0.084638
    171 H80        -7.2680    6.6050   -0.1370 h1        1 MOL      0.084638
    172 H81        -6.7490    5.1200   -2.6530 hn        1 MOL      0.280805
    173 Ca1         1.6340   -0.1670   -0.9210 Ca        1 MOL      1.789087
    174 O23         3.1060    0.8570   -3.1170 oh        1 MOL     -0.834524
    175 H82         2.5790    1.5480   -3.5050 ho        1 MOL      0.419622
    176 H83         3.9090    0.8500   -3.6350 ho        1 MOL      0.419622
    177 O24         1.1700    2.6200   -1.2210 oh        1 MOL     -0.834524
    178 H84         0.7430    3.2600   -0.6420 ho        1 MOL      0.419622
    179 H85         0.9050    2.8870   -2.0930 ho        1 MOL      0.419622
@<TRIPOS>BOND
     1    1    2 1   
     2    1    4 1   
     3    1    5 1   
     4    1    6 1   
     5    2    3 2   
     6    2    7 1   
     7    7    8 1   
     8    7   15 1   
     9    8    9 1   
    10    8   11 1   
    11    8   16 1   
    12    9   10 2   
    13    9   19 1   
    14   11   12 1   
    15   11   17 1   
    16   11   18 1   
    17   12   13 1   
    18   12   14 1   
    19   19   20 1   
    20   19   28 1   
    21   20   21 1   
    22   20   23 1   
    23   20   29 1   
    24   21   22 2   
    25   21   41 1   
    26   23   24 1   
    27   23   30 1   
    28   23   31 1   
    29   24   25 1   
    30   24   32 1   
    31   24   33 1   
    32   25   26 1   
    33   25   34 1   
    34   25   35 1   
    35   26   27 1   
    36   26   36 1   
    37   26   37 1   
    38   27   38 1   
    39   27   39 1   
    40   27   40 1   
    41   41   42 1   
    42   41   49 1   
    43   42   43 1   
    44   42   45 1   
    45   42   50 1   
    46   43   44 2   
    47   43   53 1   
    48   45   46 1   
    49   45   51 1   
    50   45   52 1   
    51   46   47 1   
    52   46   48 1   
    53   53   54 1   
    54   53   57 1   
    55   54   55 1   
    56   54   58 1   
    57   54   59 1   
    58   55   56 2   
    59   55   60 1   
    60   60   61 1   
    61   60   68 1   
    62   61   62 1   
    63   61   64 1   
    64   61   69 1   
    65   62   63 2   
    66   62   74 1   
    67   64   65 1   
    68   64   70 1   
    69   64   71 1   
    70   65   66 1   
    71   65   67 2   
    72   66   72 1   
    73   66   73 1   
    74   74   75 1   
    75   74   78 1   
    76   75   76 1   
    77   75   79 1   
    78   75   80 1   
    79   76   77 2   
    80   76   81 1   
    81   81   82 1   
    82   81   93 1   
    83   82   83 1   
    84   82   85 1   
    85   82   94 1   
    86   83   84 2   
    87   83  102 1   
    88   85   86 1   
    89   85   95 1   
    90   85   96 1   
    91   86   87 ar  
    92   86   88 ar  
    93   87   89 ar  
    94   87   97 1   
    95   88   90 ar  
    96   88   98 1   
    97   89   91 ar  
    98   89   99 1   
    99   90   91 ar  
   100   90  100 1   
   101   91   92 1   
   102   92  101 1   
   103  102  103 1   
   104  102  110 1   
   105  103  104 1   
   106  103  106 1   
   107  103  111 1   
   108  104  105 2   
   109  104  121 1   
   110  106  107 1   
   111  106  108 1   
   112  106  112 1   
   113  107  109 1   
   114  107  113 1   
   115  107  114 1   
   116  108  115 1   
   117  108  116 1   
   118  108  117 1   
   119  109  118 1   
   120  109  119 1   
   121  109  120 1   
   122  121  122 1   
   123  121  127 1   
   124  122  123 1   
   125  122  125 1   
   126  122  128 1   
   127  123  124 2   
   128  123  132 1   
   129  125  126 1   
   130  125  129 1   
   131  125  130 1   
   132  126  131 1   
   133  132  133 1   
   134  132  137 1   
   135  133  134 1   
   136  133  136 1   
   137  133  138 1   
   138  134  135 2   
   139  134  142 1   
   140  136  139 1   
   141  136  140 1   
   142  136  141 1   
   143  142  143 1   
   144  142  147 1   
   145  143  144 1   
   146  143  146 1   
   147  143  148 1   
   148  144  145 2   
   149  144  152 1   
   150  146  149 1   
   151  146  150 1   
   152  146  151 1   
   153  152  153 1   
   154  152  161 1   
   155  153  154 1   
   156  153  156 1   
   157  153  162 1   
   158  154  155 2   
   159  154  167 1   
   160  156  157 1   
   161  156  163 1   
   162  156  164 1   
   163  157  158 1   
   164  157  165 1   
   165  157  166 1   
   166  158  159 1   
   167  158  160 1   
   168  167  168 1   
   169  167  172 1   
   170  168  169 1   
   171  168  170 1   
   172  168  171 1   
   173  174  175 1   
   174  174  176 1   
   175  177  178 1   
   176  177  179 1   
@<TRIPOS>SUBSTRUCTURE
     1 MOL         1 TEMP              0 ****  ****    0 ROOT
