@<TRIPOS>MOLECULE
MOL
  179   176     1     0     0
SMALL
resp


@<TRIPOS>ATOM
      1 C1          3.7130   -4.5320    6.3530 c3        1 MOL     -0.494427
      2 C2          3.4550   -4.3210    4.8210 c         1 MOL      0.716820
      3 O1          2.6810   -4.9610    4.1110 o         1 MOL     -0.609206
      4 H1          4.5650   -3.9270    6.6640 hc        1 MOL      0.139988
      5 H2          2.8290   -4.2300    6.9160 hc        1 MOL      0.139988
      6 H3          3.9240   -5.5830    6.5450 hc        1 MOL      0.139988
      7 N1          4.1630   -3.3670    4.1870 n         1 MOL     -0.525042
      8 C3          3.9920   -2.8970    2.7670 c3        1 MOL     -0.016999
      9 C4          4.6970   -3.8830    1.8030 c         1 MOL      0.625547
     10 O2          5.8660   -4.2120    1.9490 o         1 MOL     -0.542989
     11 C5          4.5210   -1.4500    2.7840 c3        1 MOL     -0.059187
     12 C6          4.1180   -0.6570    1.4890 c         1 MOL      0.545785
     13 O3          4.0400    0.5820    1.4710 o         1 MOL     -0.662590
     14 O4          3.9110   -1.2550    0.4440 o         1 MOL     -0.662590
     15 H4          4.9210   -2.9500    4.7100 hn        1 MOL      0.284252
     16 H5          2.9220   -2.7820    2.5970 h1        1 MOL      0.062210
     17 H6          5.5960   -1.4200    2.9500 hc        1 MOL      0.035751
     18 H7          3.9950   -0.9130    3.5630 hc        1 MOL      0.035751
     19 N2          3.8920   -4.2160    0.7500 n         1 MOL     -0.321316
     20 C7          4.2460   -5.1020   -0.3750 c3        1 MOL     -0.238374
     21 C8          4.9190   -4.4990   -1.5680 c         1 MOL      0.590675
     22 O5          5.0910   -5.1430   -2.5450 o         1 MOL     -0.560636
     23 C9          3.0150   -5.9440   -0.8040 c3        1 MOL      0.058165
     24 C10         1.7750   -5.1610   -1.2730 c3        1 MOL     -0.002080
     25 C11         0.7240   -6.0330   -1.8500 c3        1 MOL     -0.260754
     26 C12        -0.4180   -5.2360   -2.4800 c3        1 MOL      0.267648
     27 N3         -1.5770   -6.0820   -2.8030 n4        1 MOL     -0.288560
     28 H8          2.9210   -3.9360    0.7990 hn        1 MOL      0.225797
     29 H9          4.9870   -5.8030    0.0070 h1        1 MOL      0.161756
     30 H10         2.6250   -6.4950    0.0540 hc        1 MOL      0.010332
     31 H11         3.2240   -6.7230   -1.5310 hc        1 MOL      0.010332
     32 H12         2.1010   -4.3930   -1.9690 hc        1 MOL      0.089952
     33 H13         1.4110   -4.5480   -0.4470 hc        1 MOL      0.089952
     34 H14         0.2210   -6.6860   -1.1400 hc        1 MOL      0.078715
     35 H15         1.1100   -6.5980   -2.7030 hc        1 MOL      0.078715
     36 H16        -0.1030   -4.6990   -3.3810 hx        1 MOL      0.004002
     37 H17        -0.6660   -4.4780   -1.7310 hx        1 MOL      0.004002
     38 H18        -1.8450   -6.6360   -2.0060 hn        1 MOL      0.282242
     39 H19        -2.3550   -5.5360   -3.1410 hn        1 MOL      0.282242
     40 H20        -1.3600   -6.7820   -3.5050 hn        1 MOL      0.282242
     41 N4          5.2790   -3.2280   -1.4930 n         1 MOL     -0.270591
     42 C13         6.1520   -2.4270   -2.4140 c3        1 MOL     -0.265143
     43 C14         7.1350   -1.4730   -1.6990 c         1 MOL      0.511023
     44 O6          8.0780   -0.9860   -2.3340 o         1 MOL     -0.499359
     45 C15         5.2720   -1.7330   -3.4860 c3        1 MOL     -0.031257
     46 C16         4.1580   -0.9210   -2.9140 c         1 MOL      0.754158
     47 O7          2.9950   -1.1690   -3.3730 o         1 MOL     -0.769538
     48 O8          4.4340   -0.1020   -1.9770 o         1 MOL     -0.769538
     49 H21         4.8600   -2.7990   -0.6790 hn        1 MOL      0.275554
     50 H22         6.8760   -3.1010   -2.8740 h1        1 MOL      0.174420
     51 H23         4.7470   -2.5230   -4.0250 hc        1 MOL      0.046697
     52 H24         5.8020   -1.1050   -4.1900 hc        1 MOL      0.046697
     53 N5          6.9660   -1.0910   -0.4150 n         1 MOL     -0.337297
     54 C17         7.8590   -0.1470    0.2950 c3        1 MOL     -0.045922
     55 C18         7.6340    1.3650    0.0340 c         1 MOL      0.460229
     56 O9          8.5100    2.1420    0.4350 o         1 MOL     -0.539276
     57 H25         6.0340   -1.2490   -0.0680 hn        1 MOL      0.149826
     58 H26         8.8740   -0.3670   -0.0110 h1        1 MOL      0.109173
     59 H27         7.8540   -0.3470    1.3580 h1        1 MOL      0.109173
     60 N6          6.5450    1.7650   -0.6310 n         1 MOL     -0.116246
     61 C19         6.1940    3.0580   -1.2150 c3        1 MOL     -0.076701
     62 C20         4.8280    3.5800   -0.7010 c         1 MOL      0.567441
     63 O10         3.9320    2.8280   -0.4220 o         1 MOL     -0.575364
     64 C21         6.2440    2.7940   -2.7280 c3        1 MOL     -0.162558
     65 C22         7.6470    2.4590   -3.2670 c         1 MOL      0.554482
     66 N7          7.6830    1.3740   -3.9720 n         1 MOL     -0.647111
     67 O11         8.6380    3.1170   -3.0570 o         1 MOL     -0.494710
     68 H28         5.8450    1.0930   -0.9040 hn        1 MOL      0.162200
     69 H29         6.9210    3.8040   -0.8900 h1        1 MOL      0.073498
     70 H30         5.8280    3.7070   -3.1600 hc        1 MOL      0.015838
     71 H31         5.4710    2.0280   -2.8790 hc        1 MOL      0.015838
     72 H32         6.8420    0.8100   -4.0660 hn        1 MOL      0.339775
     73 H33         8.4840    1.3090   -4.5760 hn        1 MOL      0.339775
     74 N8          4.6620    4.9580   -0.7180 n         1 MOL     -0.311357
     75 C23         3.4480    5.6800   -0.7160 c3        1 MOL     -0.195988
     76 C24         2.4330    5.2740    0.3770 c         1 MOL      0.600418
     77 O12         2.8490    5.0410    1.5660 o         1 MOL     -0.507495
     78 H34         5.5080    5.5090   -0.7270 hn        1 MOL      0.295830
     79 H35         2.9040    5.4420   -1.6290 h1        1 MOL      0.107271
     80 H36         3.7310    6.7280   -0.6540 h1        1 MOL      0.107271
     81 N9          1.1250    5.3020    0.1250 n         1 MOL     -0.520133
     82 C25         0.1010    4.6940    1.0230 c3        1 MOL      0.027182
     83 C26         0.4130    3.2160    1.3670 c         1 MOL      0.734437
     84 O13         1.2030    2.5410    0.6800 o         1 MOL     -0.563751
     85 C27        -1.2910    4.9040    0.4480 c3        1 MOL     -0.080328
     86 C28        -1.7250    6.3280    0.2100 ca        1 MOL      0.012774
     87 C29        -2.2090    6.7630   -1.0210 ca        1 MOL     -0.127305
     88 C30        -1.8260    7.0980    1.3830 ca        1 MOL     -0.127305
     89 C31        -2.8600    8.0030   -1.1200 ca        1 MOL     -0.293406
     90 C32        -2.2940    8.4060    1.2520 ca        1 MOL     -0.293406
     91 C33        -2.8990    8.7750    0.0540 ca        1 MOL      0.384896
     92 O14        -3.3270   10.0100   -0.0830 oh        1 MOL     -0.458467
     93 H37         0.7510    5.6030   -0.7630 hn        1 MOL      0.276944
     94 H38         0.0880    5.3280    1.9070 h1        1 MOL      0.105110
     95 H39        -2.0290    4.4280    1.0890 hc        1 MOL      0.046842
     96 H40        -1.4330    4.4650   -0.5270 hc        1 MOL      0.046842
     97 H41        -2.3140    6.1340   -1.8880 ha        1 MOL      0.130783
     98 H42        -1.4900    6.7830    2.3570 ha        1 MOL      0.130783
     99 H43        -3.3550    8.2640   -2.0400 ha        1 MOL      0.175177
    100 H44        -2.2940    9.0960    2.0820 ha        1 MOL      0.175177
    101 H45        -3.4260   10.1550   -1.0230 ho        1 MOL      0.350037
    102 N10        -0.2660    2.6500    2.4220 n         1 MOL     -0.964272
    103 C34        -0.1510    1.2450    2.8690 c3        1 MOL      0.580987
    104 C35        -0.2050    0.2570    1.7300 c         1 MOL      0.371924
    105 O15         0.8490   -0.1060    1.2150 o         1 MOL     -0.514789
    106 C36         1.0170    0.9730    3.8290 c3        1 MOL      0.075852
    107 C37         1.2470   -0.4490    4.3080 c3        1 MOL     -0.113352
    108 C38         0.9440    1.9700    5.0690 c3        1 MOL     -0.296451
    109 C39         0.0460   -0.9920    5.0640 c3        1 MOL     -0.342462
    110 H46        -0.6970    3.3440    3.0140 hn        1 MOL      0.399168
    111 H47        -0.9360    1.0770    3.5940 h1        1 MOL     -0.035506
    112 H48         1.9310    1.3080    3.3390 hc        1 MOL      0.022235
    113 H49         2.0830   -0.5280    5.0070 hc        1 MOL      0.102103
    114 H50         1.4600   -1.1120    3.4690 hc        1 MOL      0.102103
    115 H51         0.7230    2.9550    4.6830 hc        1 MOL      0.079596
    116 H52         0.1300    1.8000    5.7780 hc        1 MOL      0.079596
    117 H53         1.8350    1.9860    5.7080 hc        1 MOL      0.079596
    118 H54        -0.0180   -0.5180    6.0350 hc        1 MOL      0.083213
    119 H55        -0.8420   -0.8650    4.4440 hc        1 MOL      0.083213
    120 H56         0.2550   -2.0460    5.2550 hc        1 MOL      0.083213
    121 N11        -1.3610   -0.3510    1.3870 n         1 MOL     -0.186273
    122 C40        -1.4790   -1.3120    0.2880 c3        1 MOL      0.059426
    123 C41        -2.9190   -1.4590   -0.2400 c         1 MOL      0.669572
    124 O16        -3.2190   -2.3990   -0.9660 o         1 MOL     -0.598537
    125 C42        -0.8460   -2.6680    0.7290 c3        1 MOL      0.023879
    126 O17        -1.3640   -3.1210    1.8610 oh        1 MOL     -0.585287
    127 H57        -2.2010    0.0360    1.7840 hn        1 MOL      0.159253
    128 H58        -0.9450   -0.8810   -0.5550 h1        1 MOL     -0.072573
    129 H59         0.2450   -2.6470    0.7700 h1        1 MOL      0.053296
    130 H60        -1.2070   -3.4220    0.0230 h1        1 MOL      0.053296
    131 H61        -0.7100   -3.7240    2.2280 ho        1 MOL      0.417110
    132 N12        -3.8320   -0.5810    0.1390 n         1 MOL     -0.500944
    133 C43        -5.2030   -0.7350   -0.3380 c3        1 MOL      0.170055
    134 C44        -5.5250   -0.0940   -1.7290 c         1 MOL      0.592057
    135 O18        -4.6880    0.6400   -2.2670 o         1 MOL     -0.581696
    136 C45        -6.0540   -0.1940    0.8210 c3        1 MOL     -0.234781
    137 H62        -3.5310    0.2650    0.6070 hn        1 MOL      0.263722
    138 H63        -5.4190   -1.7870   -0.5370 h1        1 MOL      0.098200
    139 H64        -5.7720   -0.8090    1.6750 hc        1 MOL      0.066915
    140 H65        -5.9300    0.8730    0.9720 hc        1 MOL      0.066915
    141 H66        -7.1070   -0.4570    0.7220 hc        1 MOL      0.066915
    142 N13        -6.7160   -0.3810   -2.3110 n         1 MOL     -0.621900
    143 C46        -7.7130   -1.4580   -1.9640 c3        1 MOL      0.193185
    144 C47        -9.1540   -0.9500   -2.1330 c         1 MOL      0.357042
    145 O19        -9.4450   -0.1700   -3.0130 o         1 MOL     -0.516443
    146 C48        -7.5050   -2.6470   -2.8540 c3        1 MOL     -0.475314
    147 H67        -6.8860    0.0300   -3.2220 hn        1 MOL      0.358314
    148 H68        -7.5330   -1.8610   -0.9660 h1        1 MOL      0.047163
    149 H69        -6.4520   -2.9500   -2.8430 hc        1 MOL      0.140280
    150 H70        -8.2210   -3.4170   -2.5720 hc        1 MOL      0.140280
    151 H71        -7.7630   -2.3340   -3.8650 hc        1 MOL      0.140280
    152 N14       -10.1450   -1.3240   -1.3240 n         1 MOL      0.089773
    153 C49       -10.0270   -1.9510   -0.0050 c3        1 MOL     -0.615917
    154 C50        -9.7240   -0.9370    1.0780 c         1 MOL      0.731038
    155 O20        -9.3430   -1.2250    2.2380 o         1 MOL     -0.580997
    156 C51       -11.3070   -2.7850    0.2690 c3        1 MOL     -0.021355
    157 C52       -12.5640   -2.0050    0.6130 c3        1 MOL     -0.187754
    158 C53       -12.9960   -1.1410   -0.5850 c         1 MOL      0.678655
    159 O21       -13.4180    0.0480   -0.4810 o         1 MOL     -0.656842
    160 O22       -12.9450   -1.7210   -1.7580 o         1 MOL     -0.656842
    161 H72       -11.0960   -1.2810   -1.6580 hn        1 MOL      0.119512
    162 H73        -9.2040   -2.6630   -0.1510 h1        1 MOL      0.177312
    163 H74       -11.2420   -3.3630    1.2040 hc        1 MOL      0.056944
    164 H75       -11.3540   -3.5650   -0.4910 hc        1 MOL      0.056944
    165 H76       -12.3540   -1.3800    1.4720 hc        1 MOL      0.056815
    166 H77       -13.4220   -2.6470    0.8440 hc        1 MOL      0.056815
    167 N15        -9.8430    0.3390    0.6940 n         1 MOL     -0.308070
    168 C54        -9.7110    1.4970    1.5820 c3        1 MOL     -0.173504
    169 H78        -8.8710    2.1110    1.2560 h1        1 MOL      0.090574
    170 H79       -10.6260    2.0880    1.5470 h1        1 MOL      0.090574
    171 H80        -9.5360    1.1560    2.6020 h1        1 MOL      0.090574
    172 H81       -10.1770    0.4680   -0.2470 hn        1 MOL      0.249239
    173 Ca1         2.4730    0.7520   -0.7090 Ca        1 MOL      1.764602
    174 O23         1.3470   -1.7770   -1.6260 oh        1 MOL     -0.956503
    175 H82         0.4890   -1.5570   -1.9800 ho        1 MOL      0.458355
    176 H83         1.9490   -1.6980   -2.3650 ho        1 MOL      0.458355
    177 O24        -0.1230    0.8690   -1.6300 oh        1 MOL     -0.956503
    178 H84        -0.2970    0.4050   -2.4480 ho        1 MOL      0.458355
    179 H85        -0.8250    1.5050   -1.5580 ho        1 MOL      0.458355
@<TRIPOS>BOND
     1    1    2 1   
     2    1    4 1   
     3    1    5 1   
     4    1    6 1   
     5    2    3 2   
     6    2    7 1   
     7    7    8 1   
     8    7   15 1   
     9    8    9 1   
    10    8   11 1   
    11    8   16 1   
    12    9   10 2   
    13    9   19 1   
    14   11   12 1   
    15   11   17 1   
    16   11   18 1   
    17   12   13 1   
    18   12   14 1   
    19   19   20 1   
    20   19   28 1   
    21   20   21 1   
    22   20   23 1   
    23   20   29 1   
    24   21   22 2   
    25   21   41 1   
    26   23   24 1   
    27   23   30 1   
    28   23   31 1   
    29   24   25 1   
    30   24   32 1   
    31   24   33 1   
    32   25   26 1   
    33   25   34 1   
    34   25   35 1   
    35   26   27 1   
    36   26   36 1   
    37   26   37 1   
    38   27   38 1   
    39   27   39 1   
    40   27   40 1   
    41   41   42 1   
    42   41   49 1   
    43   42   43 1   
    44   42   45 1   
    45   42   50 1   
    46   43   44 2   
    47   43   53 1   
    48   45   46 1   
    49   45   51 1   
    50   45   52 1   
    51   46   47 1   
    52   46   48 1   
    53   53   54 1   
    54   53   57 1   
    55   54   55 1   
    56   54   58 1   
    57   54   59 1   
    58   55   56 2   
    59   55   60 1   
    60   60   61 1   
    61   60   68 1   
    62   61   62 1   
    63   61   64 1   
    64   61   69 1   
    65   62   63 2   
    66   62   74 1   
    67   64   65 1   
    68   64   70 1   
    69   64   71 1   
    70   65   66 1   
    71   65   67 2   
    72   66   72 1   
    73   66   73 1   
    74   74   75 1   
    75   74   78 1   
    76   75   76 1   
    77   75   79 1   
    78   75   80 1   
    79   76   77 2   
    80   76   81 1   
    81   81   82 1   
    82   81   93 1   
    83   82   83 1   
    84   82   85 1   
    85   82   94 1   
    86   83   84 2   
    87   83  102 1   
    88   85   86 1   
    89   85   95 1   
    90   85   96 1   
    91   86   87 ar  
    92   86   88 ar  
    93   87   89 ar  
    94   87   97 1   
    95   88   90 ar  
    96   88   98 1   
    97   89   91 ar  
    98   89   99 1   
    99   90   91 ar  
   100   90  100 1   
   101   91   92 1   
   102   92  101 1   
   103  102  103 1   
   104  102  110 1   
   105  103  104 1   
   106  103  106 1   
   107  103  111 1   
   108  104  105 2   
   109  104  121 1   
   110  106  107 1   
   111  106  108 1   
   112  106  112 1   
   113  107  109 1   
   114  107  113 1   
   115  107  114 1   
   116  108  115 1   
   117  108  116 1   
   118  108  117 1   
   119  109  118 1   
   120  109  119 1   
   121  109  120 1   
   122  121  122 1   
   123  121  127 1   
   124  122  123 1   
   125  122  125 1   
   126  122  128 1   
   127  123  124 2   
   128  123  132 1   
   129  125  126 1   
   130  125  129 1   
   131  125  130 1   
   132  126  131 1   
   133  132  133 1   
   134  132  137 1   
   135  133  134 1   
   136  133  136 1   
   137  133  138 1   
   138  134  135 2   
   139  134  142 1   
   140  136  139 1   
   141  136  140 1   
   142  136  141 1   
   143  142  143 1   
   144  142  147 1   
   145  143  144 1   
   146  143  146 1   
   147  143  148 1   
   148  144  145 2   
   149  144  152 1   
   150  146  149 1   
   151  146  150 1   
   152  146  151 1   
   153  152  153 1   
   154  152  161 1   
   155  153  154 1   
   156  153  156 1   
   157  153  162 1   
   158  154  155 2   
   159  154  167 1   
   160  156  157 1   
   161  156  163 1   
   162  156  164 1   
   163  157  158 1   
   164  157  165 1   
   165  157  166 1   
   166  158  159 1   
   167  158  160 1   
   168  167  168 1   
   169  167  172 1   
   170  168  169 1   
   171  168  170 1   
   172  168  171 1   
   173  174  175 1   
   174  174  176 1   
   175  177  178 1   
   176  177  179 1   
@<TRIPOS>SUBSTRUCTURE
     1 MOL         1 TEMP              0 ****  ****    0 ROOT
