@<TRIPOS>MOLECULE
MOL
  182   178     1     0     0
SMALL
resp


@<TRIPOS>ATOM
      1 C1         -0.0450   -2.9890    6.5180 c3        1 MOL     -0.527597
      2 C2          0.1570   -3.0580    4.9520 c         1 MOL      0.740405
      3 O1         -0.8280   -3.2940    4.2330 o         1 MOL     -0.592443
      4 H1         -0.5070   -2.0380    6.7820 hc        1 MOL      0.148470
      5 H2         -0.6910   -3.8070    6.8380 hc        1 MOL      0.148470
      6 H3          0.9220   -3.0730    7.0130 hc        1 MOL      0.148470
      7 N1          1.4330   -2.8650    4.5260 n         1 MOL     -0.574985
      8 C3          1.9040   -2.8110    3.1260 c3        1 MOL     -0.097724
      9 C4          2.0280   -4.1830    2.5670 c         1 MOL      0.661257
     10 O2          2.5660   -5.0990    3.2140 o         1 MOL     -0.550073
     11 C5          3.1410   -1.9040    3.0570 c3        1 MOL      0.032797
     12 C6          3.2470   -1.3860    1.6330 c         1 MOL      0.518395
     13 O3          3.8790   -0.2910    1.4130 o         1 MOL     -0.655640
     14 O4          2.7530   -2.0620    0.6630 o         1 MOL     -0.655640
     15 H4          2.1630   -3.0290    5.2080 hn        1 MOL      0.329318
     16 H5          1.1410   -2.3050    2.5240 h1        1 MOL      0.018571
     17 H6          4.0680   -2.3710    3.3820 hc        1 MOL      0.044964
     18 H7          3.0300   -1.0180    3.6960 hc        1 MOL      0.044964
     19 N2          1.6000   -4.3430    1.2990 n         1 MOL     -0.419656
     20 C7          1.6480   -5.5660    0.4910 c3        1 MOL     -0.074510
     21 C8          2.9960   -5.6660   -0.2670 c         1 MOL      0.462235
     22 O5          3.3670   -6.7960   -0.6120 o         1 MOL     -0.550952
     23 C9          0.4790   -5.6140   -0.5150 c3        1 MOL      0.005789
     24 C10         0.5670   -4.6450   -1.7150 c3        1 MOL      0.099737
     25 C11        -0.5480   -4.7760   -2.7580 c3        1 MOL     -0.098529
     26 C12        -1.8510   -4.1370   -2.2220 c3        1 MOL      0.070560
     27 N3         -2.9230   -4.0250   -3.2360 n4        1 MOL     -0.436077
     28 H8          1.1820   -3.5130    0.9130 hn        1 MOL      0.211449
     29 H9          1.4470   -6.4190    1.1500 h1        1 MOL      0.142123
     30 H10        -0.5130   -5.4860   -0.0710 hc        1 MOL      0.019918
     31 H11         0.3460   -6.6410   -0.8470 hc        1 MOL      0.019918
     32 H12         1.4860   -4.8130   -2.2800 hc        1 MOL      0.002851
     33 H13         0.6170   -3.6170   -1.3600 hc        1 MOL      0.002851
     34 H14        -0.7710   -5.8190   -3.0190 hc        1 MOL      0.036187
     35 H15        -0.1670   -4.2270   -3.6250 hc        1 MOL      0.036187
     36 H16        -1.7430   -3.0890   -1.9330 hx        1 MOL      0.093844
     37 H17        -2.2140   -4.8200   -1.4530 hx        1 MOL      0.093844
     38 H18        -3.2050   -4.9130   -3.6380 hn        1 MOL      0.311827
     39 H19        -3.7450   -3.5640   -2.8690 hn        1 MOL      0.311827
     40 H20        -2.7190   -3.3410   -3.9480 hn        1 MOL      0.311827
     41 N4          3.7160   -4.5840   -0.5040 n         1 MOL     -0.141660
     42 C13         4.9270   -4.5300   -1.2720 c3        1 MOL      0.110120
     43 C14         6.0720   -3.8600   -0.4420 c         1 MOL      0.429373
     44 O6          7.1520   -4.3860   -0.4970 o         1 MOL     -0.507168
     45 C15         4.6490   -3.7780   -2.5700 c3        1 MOL     -0.215505
     46 C16         3.8830   -2.3940   -2.3670 c         1 MOL      0.706234
     47 O7          2.7980   -2.2040   -2.9170 o         1 MOL     -0.698854
     48 O8          4.4960   -1.4770   -1.7560 o         1 MOL     -0.698854
     49 H21         3.5030   -3.6770   -0.1210 hn        1 MOL      0.047483
     50 H22         5.2930   -5.5220   -1.5190 h1        1 MOL      0.079088
     51 H23         4.0480   -4.4220   -3.2090 hc        1 MOL      0.055849
     52 H24         5.5440   -3.6390   -3.1800 hc        1 MOL      0.055849
     53 N5          5.7880   -2.8400    0.4270 n         1 MOL     -0.202422
     54 C17         6.5900   -2.2100    1.4170 c3        1 MOL     -0.166199
     55 C18         7.0740   -0.8480    0.8860 c         1 MOL      0.498883
     56 O9          7.9320   -0.2440    1.4930 o         1 MOL     -0.554384
     57 H25         4.8500   -2.4760    0.3340 hn        1 MOL      0.154243
     58 H26         7.4380   -2.8790    1.5740 h1        1 MOL      0.118699
     59 H27         6.1900   -2.0620    2.4140 h1        1 MOL      0.118699
     60 N6          6.5630   -0.3800   -0.2760 n         1 MOL     -0.042187
     61 C19         7.0210    0.8420   -0.9510 c3        1 MOL     -0.024720
     62 C20         5.9810    1.9560   -0.9440 c         1 MOL      0.619869
     63 O10         4.7640    1.7260   -0.9280 o         1 MOL     -0.580514
     64 C21         7.2920    0.5080   -2.4510 c3        1 MOL     -0.354837
     65 C22         8.3010   -0.5800   -2.7720 c         1 MOL      0.722256
     66 N7          7.7640   -1.6080   -3.3330 n         1 MOL     -0.851484
     67 O11         9.5360   -0.5620   -2.5340 o         1 MOL     -0.560181
     68 H28         5.7320   -0.7660   -0.7060 hn        1 MOL      0.064280
     69 H29         7.9030    1.2400   -0.4450 h1        1 MOL      0.056072
     70 H30         7.6480    1.3380   -3.0620 hc        1 MOL      0.086059
     71 H31         6.3370    0.2240   -2.8900 hc        1 MOL      0.086059
     72 H32         6.8070   -1.5430   -3.6260 hn        1 MOL      0.391571
     73 H33         8.2820   -2.4740   -3.4710 hn        1 MOL      0.391571
     74 N8          6.5260    3.1490   -1.0600 n         1 MOL     -0.450516
     75 C23         5.7040    4.3380   -1.1440 c3        1 MOL     -0.050814
     76 C24         4.6730    4.5860   -0.1160 c         1 MOL      0.646561
     77 O12         5.0500    4.6140    1.0670 o         1 MOL     -0.506513
     78 H34         7.5270    3.2510   -1.0730 hn        1 MOL      0.347722
     79 H35         5.2210    4.3480   -2.1170 h1        1 MOL      0.070238
     80 H36         6.4120    5.1500   -1.3110 h1        1 MOL      0.070238
     81 N9          3.3610    4.7730   -0.4740 n         1 MOL     -0.997252
     82 C25         2.2860    4.8750    0.5080 c3        1 MOL      1.008829
     83 C26         1.7840    3.4640    0.8630 c         1 MOL      0.140840
     84 O13         2.4200    2.4430    0.4200 o         1 MOL     -0.337336
     85 C27         1.1710    5.8470    0.0440 c3        1 MOL     -0.314197
     86 C28         1.5610    7.1950   -0.3100 ca        1 MOL      0.175523
     87 C29         1.2550    7.6900   -1.5880 ca        1 MOL     -0.262407
     88 C30         2.0770    7.9590    0.7470 ca        1 MOL     -0.262407
     89 C31         1.6010    9.0140   -1.7660 ca        1 MOL     -0.115052
     90 C32         2.3790    9.3260    0.4630 ca        1 MOL     -0.115052
     91 C33         2.1350    9.9130   -0.8330 ca        1 MOL      0.165736
     92 O14         2.3750   11.2680   -1.0670 oh        1 MOL     -0.409808
     93 H37         3.0960    4.8080   -1.4430 hn        1 MOL      0.386192
     94 H38         2.6500    5.2800    1.4490 h1        1 MOL     -0.092213
     95 H39         0.4960    5.9260    0.8960 hc        1 MOL      0.046757
     96 H40         0.7520    5.4280   -0.8760 hc        1 MOL      0.046757
     97 H41         0.8300    7.0710   -2.3570 ha        1 MOL      0.152565
     98 H42         2.1410    7.4450    1.6940 ha        1 MOL      0.152565
     99 H43         1.4510    9.3110   -2.7900 ha        1 MOL      0.125481
    100 H44         2.6680    9.9130    1.3250 ha        1 MOL      0.125481
    101 H45         2.1290   11.5140   -1.9630 ho        1 MOL      0.342764
    102 N10         0.7410    3.2960    1.6610 n         1 MOL     -0.681841
    103 C34         0.3570    2.1270    2.4310 c3        1 MOL      0.117848
    104 C35        -0.0870    0.8450    1.6880 c         1 MOL      0.842825
    105 O15         0.6880    0.2320    0.9330 o         1 MOL     -0.602586
    106 C36         1.4190    1.7430    3.5470 c3        1 MOL      0.263714
    107 C37         0.6970    0.8840    4.6350 c3        1 MOL     -0.013477
    108 C38         2.0470    3.0340    4.2320 c3        1 MOL     -0.389666
    109 C39        -0.3360    1.5310    5.5420 c3        1 MOL     -0.086372
    110 H46         0.5160    4.1790    2.0950 hn        1 MOL      0.295889
    111 H47        -0.4980    2.5530    2.9590 h1        1 MOL      0.087210
    112 H48         2.2170    1.2130    3.0420 hc        1 MOL      0.001135
    113 H49         1.4730    0.3600    5.2020 hc        1 MOL     -0.008584
    114 H50         0.2160    0.1340    4.0180 hc        1 MOL     -0.008584
    115 H51         2.8960    3.4300    3.6700 hc        1 MOL      0.107790
    116 H52         1.3040    3.7980    4.4060 hc        1 MOL      0.107790
    117 H53         2.4760    2.7950    5.2000 hc        1 MOL      0.107790
    118 H54         0.0940    2.4160    6.0050 hc        1 MOL      0.015473
    119 H55        -1.0980    1.9930    4.9140 hc        1 MOL      0.015473
    120 H56        -0.7170    0.7690    6.2220 hc        1 MOL      0.015473
    121 N11        -1.3960    0.4410    1.6750 n         1 MOL     -0.747497
    122 C40        -1.8960   -0.6340    0.8140 c3        1 MOL      0.189514
    123 C41        -3.3260   -0.3320    0.3560 c         1 MOL      0.599499
    124 O16        -4.1650    0.1560    1.1300 o         1 MOL     -0.511206
    125 C42        -1.7430   -1.9830    1.4540 c3        1 MOL      0.262076
    126 O17        -2.3150   -2.9000    0.5140 oh        1 MOL     -0.727131
    127 H57        -2.0260    0.9770    2.2610 hn        1 MOL      0.291071
    128 H58        -1.2600   -0.6950   -0.0720 h1        1 MOL      0.026692
    129 H59        -2.3000   -2.1550    2.3730 h1        1 MOL      0.059772
    130 H60        -0.6760   -2.1460    1.6040 h1        1 MOL      0.059772
    131 H61        -2.8380   -3.5950    0.9480 ho        1 MOL      0.430383
    132 N12        -3.7540   -0.7510   -0.8240 n         1 MOL     -0.552859
    133 C43        -5.1460   -0.5450   -1.2730 c3        1 MOL      0.162886
    134 C44        -5.6290   -1.5130   -2.3780 c         1 MOL      0.624335
    135 O18        -4.8460   -2.0520   -3.1390 o         1 MOL     -0.607867
    136 C45        -5.2840    0.8550   -1.7700 c3        1 MOL     -0.126902
    137 H62        -3.1750   -1.0060   -1.6090 hn        1 MOL      0.189970
    138 H63        -5.7920   -0.7910   -0.4220 h1        1 MOL      0.075528
    139 H64        -4.5530    1.0840   -2.5510 hc        1 MOL      0.043306
    140 H65        -6.2770    1.0600   -2.1430 hc        1 MOL      0.043306
    141 H66        -5.0620    1.5320   -0.9390 hc        1 MOL      0.043306
    142 N13        -6.9130   -1.7720   -2.6160 n         1 MOL     -0.649597
    143 C46        -8.1130   -1.3330   -1.8420 c3        1 MOL      0.380005
    144 C47        -8.9960   -0.2440   -2.5610 c         1 MOL      0.684483
    145 O19        -8.8330   -0.0410   -3.7400 o         1 MOL     -0.592303
    146 C48        -8.9120   -2.5310   -1.4720 c3        1 MOL     -0.465924
    147 H67        -7.0300   -2.5440   -3.2700 hn        1 MOL      0.357550
    148 H68        -7.8410   -0.8500   -0.8980 h1        1 MOL      0.001981
    149 H69        -8.4360   -3.0190   -0.6300 hc        1 MOL      0.135349
    150 H70        -9.9000   -2.2260   -1.1180 hc        1 MOL      0.135349
    151 H71        -8.9830   -3.2760   -2.2610 hc        1 MOL      0.135349
    152 N14        -9.9430    0.4070   -1.9370 n         1 MOL     -0.690229
    153 C49       -10.2080    0.4520   -0.4650 c3        1 MOL     -0.232808
    154 C50        -9.5720    1.6050    0.3700 c         1 MOL      0.609680
    155 O20        -9.1660    1.3410    1.4750 o         1 MOL     -0.526488
    156 C51       -11.7420    0.4360   -0.3940 c3        1 MOL     -0.019591
    157 C52       -12.2210    0.1710    1.0210 c3        1 MOL     -0.219343
    158 C53       -13.7320   -0.0920    0.9740 c         1 MOL      0.681860
    159 O21       -14.4370    0.8020    1.4900 o         1 MOL     -0.665163
    160 O22       -14.1850   -1.2350    0.6400 o         1 MOL     -0.665163
    161 H72       -10.5980    0.9320   -2.5010 hn        1 MOL      0.383683
    162 H73        -9.7310   -0.4480   -0.0680 h1        1 MOL      0.137665
    163 H74       -12.0600   -0.4170   -0.9860 hc        1 MOL      0.054794
    164 H75       -12.2290    1.3710   -0.6980 hc        1 MOL      0.054794
    165 H76       -11.9530    1.0710    1.5790 hc        1 MOL      0.071079
    166 H77       -11.7330   -0.6980    1.4620 hc        1 MOL      0.071079
    167 N15        -9.5250    2.8210   -0.1760 n         1 MOL     -0.333531
    168 C54        -8.7870    3.8570    0.5540 c3        1 MOL     -0.236830
    169 H78        -8.8350    3.6510    1.6230 h1        1 MOL      0.114828
    170 H79        -7.7460    3.8570    0.2320 h1        1 MOL      0.114828
    171 H80        -9.2320    4.8320    0.3520 h1        1 MOL      0.114828
    172 H81       -10.1540    2.9900   -0.9460 hn        1 MOL      0.286191
    173 Ca1         2.4490    0.0760   -1.0350 Ca        1 MOL      1.769924
    174 O23         0.3250   -1.1010   -2.0710 oh        1 MOL     -0.857373
    175 H82         0.6210   -1.4910   -2.9010 ho        1 MOL      0.406555
    176 H83        -0.5770   -0.8200   -2.2580 ho        1 MOL      0.406555
    177 O24         0.5230    1.9380   -1.7690 oh        1 MOL     -0.857373
    178 H84        -0.4320    1.9360   -1.7030 ho        1 MOL      0.406555
    179 H85         0.7300    2.6680   -2.3370 ho        1 MOL      0.406555
    180 O25         2.5830    0.4880   -3.5790 oh        1 MOL     -0.857373
    181 H86         2.9580   -0.2610   -4.0570 ho        1 MOL      0.406555
    182 H87         1.8990    0.8150   -4.1570 ho        1 MOL      0.406555
@<TRIPOS>BOND
     1    1    2 1   
     2    1    4 1   
     3    1    5 1   
     4    1    6 1   
     5    2    3 2   
     6    2    7 1   
     7    7    8 1   
     8    7   15 1   
     9    8    9 1   
    10    8   11 1   
    11    8   16 1   
    12    9   10 2   
    13    9   19 1   
    14   11   12 1   
    15   11   17 1   
    16   11   18 1   
    17   12   13 1   
    18   12   14 1   
    19   19   20 1   
    20   19   28 1   
    21   20   21 1   
    22   20   23 1   
    23   20   29 1   
    24   21   22 2   
    25   21   41 1   
    26   23   24 1   
    27   23   30 1   
    28   23   31 1   
    29   24   25 1   
    30   24   32 1   
    31   24   33 1   
    32   25   26 1   
    33   25   34 1   
    34   25   35 1   
    35   26   27 1   
    36   26   36 1   
    37   26   37 1   
    38   27   38 1   
    39   27   39 1   
    40   27   40 1   
    41   41   42 1   
    42   41   49 1   
    43   42   43 1   
    44   42   45 1   
    45   42   50 1   
    46   43   44 2   
    47   43   53 1   
    48   45   46 1   
    49   45   51 1   
    50   45   52 1   
    51   46   47 1   
    52   46   48 1   
    53   53   54 1   
    54   53   57 1   
    55   54   55 1   
    56   54   58 1   
    57   54   59 1   
    58   55   56 2   
    59   55   60 1   
    60   60   61 1   
    61   60   68 1   
    62   61   62 1   
    63   61   64 1   
    64   61   69 1   
    65   62   63 2   
    66   62   74 1   
    67   64   65 1   
    68   64   70 1   
    69   64   71 1   
    70   65   66 1   
    71   65   67 2   
    72   66   72 1   
    73   66   73 1   
    74   74   75 1   
    75   74   78 1   
    76   75   76 1   
    77   75   79 1   
    78   75   80 1   
    79   76   77 2   
    80   76   81 1   
    81   81   82 1   
    82   81   93 1   
    83   82   83 1   
    84   82   85 1   
    85   82   94 1   
    86   83   84 2   
    87   83  102 1   
    88   85   86 1   
    89   85   95 1   
    90   85   96 1   
    91   86   87 ar  
    92   86   88 ar  
    93   87   89 ar  
    94   87   97 1   
    95   88   90 ar  
    96   88   98 1   
    97   89   91 ar  
    98   89   99 1   
    99   90   91 ar  
   100   90  100 1   
   101   91   92 1   
   102   92  101 1   
   103  102  103 1   
   104  102  110 1   
   105  103  104 1   
   106  103  106 1   
   107  103  111 1   
   108  104  105 2   
   109  104  121 1   
   110  106  107 1   
   111  106  108 1   
   112  106  112 1   
   113  107  109 1   
   114  107  113 1   
   115  107  114 1   
   116  108  115 1   
   117  108  116 1   
   118  108  117 1   
   119  109  118 1   
   120  109  119 1   
   121  109  120 1   
   122  121  122 1   
   123  121  127 1   
   124  122  123 1   
   125  122  125 1   
   126  122  128 1   
   127  123  124 2   
   128  123  132 1   
   129  125  126 1   
   130  125  129 1   
   131  125  130 1   
   132  126  131 1   
   133  132  133 1   
   134  132  137 1   
   135  133  134 1   
   136  133  136 1   
   137  133  138 1   
   138  134  135 2   
   139  134  142 1   
   140  136  139 1   
   141  136  140 1   
   142  136  141 1   
   143  142  143 1   
   144  142  147 1   
   145  143  144 1   
   146  143  146 1   
   147  143  148 1   
   148  144  145 2   
   149  144  152 1   
   150  146  149 1   
   151  146  150 1   
   152  146  151 1   
   153  152  153 1   
   154  152  161 1   
   155  153  154 1   
   156  153  156 1   
   157  153  162 1   
   158  154  155 2   
   159  154  167 1   
   160  156  157 1   
   161  156  163 1   
   162  156  164 1   
   163  157  158 1   
   164  157  165 1   
   165  157  166 1   
   166  158  159 1   
   167  158  160 1   
   168  167  168 1   
   169  167  172 1   
   170  168  169 1   
   171  168  170 1   
   172  168  171 1   
   173  174  175 1   
   174  174  176 1   
   175  177  178 1   
   176  177  179 1   
   177  180  181 1   
   178  180  182 1   
@<TRIPOS>SUBSTRUCTURE
     1 MOL         1 TEMP              0 ****  ****    0 ROOT
