@<TRIPOS>MOLECULE
MOL
  185   180     1     0     0
SMALL
resp


@<TRIPOS>ATOM
      1 C1         -6.0870    1.3210   -3.3970 c3        1 MOL     -0.470624
      2 C2         -6.6350    1.3400   -1.9310 c         1 MOL      0.555091
      3 O1         -5.8340    1.1910   -0.9910 o         1 MOL     -0.431218
      4 H1         -5.0020    1.4230   -3.3790 hc        1 MOL      0.129685
      5 H2         -6.3550    0.3780   -3.8730 hc        1 MOL      0.129685
      6 H3         -6.5200    2.1490   -3.9580 hc        1 MOL      0.129685
      7 N1         -7.9180    1.5060   -1.7490 n         1 MOL     -0.526591
      8 C3         -8.5990    1.4870   -0.4230 c3        1 MOL      0.076282
      9 C4         -8.2070    0.3020    0.5430 c         1 MOL      0.413556
     10 O2         -8.2410    0.4780    1.7930 o         1 MOL     -0.493534
     11 C5         -8.5220    2.8620    0.3000 c3        1 MOL     -0.245457
     12 C6         -8.9060    3.9640   -0.5770 c         1 MOL      0.767346
     13 O3         -8.1100    4.8910   -0.9220 o         1 MOL     -0.682029
     14 O4        -10.1030    4.0570   -0.8850 o         1 MOL     -0.682029
     15 H4         -8.4970    1.6940   -2.5550 hn        1 MOL      0.329406
     16 H5         -9.6280    1.2700   -0.6860 h1        1 MOL      0.050374
     17 H6         -7.4690    2.9740    0.5620 hc        1 MOL      0.089388
     18 H7         -9.1880    2.8240    1.1680 hc        1 MOL      0.089388
     19 N2         -7.8880   -0.8680    0.0250 n         1 MOL     -0.289954
     20 C7         -7.7730   -2.2030    0.7330 c3        1 MOL     -0.015803
     21 C8         -6.2780   -2.6430    0.9540 c         1 MOL      0.589678
     22 O5         -5.9530   -3.7060    1.3960 o         1 MOL     -0.561103
     23 C9         -8.5500   -3.3030    0.0250 c3        1 MOL     -0.141680
     24 C10       -10.1450   -3.0480   -0.0690 c3        1 MOL      0.292398
     25 C11       -10.8630   -4.2180   -0.6850 c3        1 MOL     -0.391919
     26 C12       -10.5090   -4.3150   -2.1600 c3        1 MOL      0.274347
     27 N3        -11.6100   -5.1130   -2.7570 n4        1 MOL     -0.407681
     28 H8         -7.9480   -0.8670   -0.9760 hn        1 MOL      0.198098
     29 H9         -8.2070   -2.0340    1.7130 h1        1 MOL      0.106342
     30 H10        -8.4440   -4.2210    0.6090 hc        1 MOL      0.048515
     31 H11        -8.1080   -3.4540   -0.9530 hc        1 MOL      0.048515
     32 H12       -10.3030   -2.1430   -0.6550 hc        1 MOL     -0.025867
     33 H13       -10.5550   -2.7590    0.9040 hc        1 MOL     -0.025867
     34 H14       -11.8920   -3.9310   -0.4990 hc        1 MOL      0.118899
     35 H15       -10.4930   -5.1300   -0.2060 hc        1 MOL      0.118899
     36 H16        -9.5990   -4.9040   -2.2950 hx        1 MOL      0.025315
     37 H17       -10.2250   -3.3570   -2.5840 hx        1 MOL      0.025315
     38 H18       -11.6210   -6.0680   -2.4430 hn        1 MOL      0.305876
     39 H19       -12.5520   -4.7830   -2.5660 hn        1 MOL      0.305876
     40 H20       -11.4580   -5.2210   -3.7540 hn        1 MOL      0.305876
     41 N4         -5.3210   -1.8110    0.5050 n         1 MOL     -0.401114
     42 C13        -3.9180   -2.1030    0.4310 c3        1 MOL     -0.081245
     43 C14        -3.2550   -2.3260    1.8060 c         1 MOL      0.633367
     44 O6         -3.5150   -1.5470    2.7570 o         1 MOL     -0.483067
     45 C15        -3.2450   -0.9170   -0.2480 c3        1 MOL      0.018549
     46 C16        -1.6860   -1.0690   -0.4040 c         1 MOL      0.568888
     47 O7         -1.3130   -1.2910   -1.5360 o         1 MOL     -0.720683
     48 O8         -0.9210   -0.8750    0.5400 o         1 MOL     -0.720683
     49 H21        -5.5360   -0.9170    0.0870 hn        1 MOL      0.220913
     50 H22        -3.6730   -2.9840   -0.1670 h1        1 MOL      0.055511
     51 H23        -3.4250   -0.0040    0.3170 hc        1 MOL      0.038769
     52 H24        -3.7090   -0.7810   -1.2290 hc        1 MOL      0.038769
     53 N5         -2.3640   -3.3680    1.8790 n         1 MOL     -0.334175
     54 C17        -1.7850   -3.9160    3.1410 c3        1 MOL     -0.120362
     55 C18        -1.1340   -3.0130    4.1400 c         1 MOL      0.562289
     56 O9         -1.2700   -3.2240    5.3700 o         1 MOL     -0.550775
     57 H25        -2.2660   -4.0270    1.1290 hn        1 MOL      0.241804
     58 H26        -0.9880   -4.6310    2.9610 h1        1 MOL      0.090256
     59 H27        -2.5630   -4.4370    3.6920 h1        1 MOL      0.090256
     60 N6         -0.5720   -1.8830    3.6210 n         1 MOL     -0.428371
     61 C19         0.1940   -0.8120    4.3490 c3        1 MOL      0.183976
     62 C20        -0.3500    0.5950    4.1040 c         1 MOL      0.387434
     63 O10         0.2780    1.5430    4.5530 o         1 MOL     -0.521973
     64 C21         1.6830   -0.9830    4.2300 c3        1 MOL     -0.295735
     65 C22         2.1930   -0.6110    2.8710 c         1 MOL      0.746052
     66 N7          2.9980    0.4090    2.6880 n         1 MOL     -0.768416
     67 O11         1.7610   -1.1330    1.8270 o         1 MOL     -0.771522
     68 H28        -0.6370   -1.8150    2.6150 hn        1 MOL      0.299690
     69 H29         0.0290   -0.8960    5.4200 h1        1 MOL      0.083435
     70 H30         1.9550   -1.9700    4.6130 hc        1 MOL      0.098583
     71 H31         2.1690   -0.2640    4.8920 hc        1 MOL      0.098583
     72 H32         3.2480    1.0930    3.3910 hn        1 MOL      0.363461
     73 H33         3.3920    0.4960    1.7620 hn        1 MOL      0.363461
     74 N8         -1.4100    0.7030    3.2810 n         1 MOL     -0.015842
     75 C23        -2.0480    1.9630    2.8770 c3        1 MOL     -0.400202
     76 C24        -1.3540    2.7830    1.7930 c         1 MOL      0.673619
     77 O12        -1.0590    3.9510    2.0260 o         1 MOL     -0.570282
     78 H34        -1.6580   -0.1820    2.8670 hn        1 MOL     -0.034301
     79 H35        -2.1920    2.5650    3.7800 h1        1 MOL      0.165065
     80 H36        -3.0510    1.7000    2.5360 h1        1 MOL      0.165065
     81 N9         -0.8030    2.1480    0.7680 n         1 MOL     -0.451463
     82 C25        -0.1120    2.8170   -0.2700 c3        1 MOL      0.300092
     83 C26         1.2120    2.1330   -0.5870 c         1 MOL      0.479952
     84 O13         1.3860    0.9250   -0.5240 o         1 MOL     -0.410501
     85 C27        -1.0430    2.9990   -1.4800 c3        1 MOL     -0.070758
     86 C28        -2.2420    3.9160   -1.3440 ca        1 MOL     -0.122787
     87 C29        -2.1910    5.2940   -1.6700 ca        1 MOL     -0.070103
     88 C30        -3.4140    3.4140   -0.6800 ca        1 MOL     -0.070103
     89 C31        -3.4160    6.0090   -1.7240 ca        1 MOL     -0.306057
     90 C32        -4.5470    4.2120   -0.5450 ca        1 MOL     -0.306057
     91 C33        -4.5850    5.4710   -1.1700 ca        1 MOL      0.478818
     92 O14        -5.7870    6.1180   -1.2960 oh        1 MOL     -0.602030
     93 H37        -1.0570    1.1730    0.6270 hn        1 MOL      0.326702
     94 H38         0.1760    3.7600    0.1840 h1        1 MOL      0.017754
     95 H39        -1.3480    2.0110   -1.8030 hc        1 MOL      0.020350
     96 H40        -0.4340    3.4050   -2.2840 hc        1 MOL      0.020350
     97 H41        -1.2360    5.6520   -2.0240 ha        1 MOL      0.083846
     98 H42        -3.4170    2.3630   -0.4030 ha        1 MOL      0.083846
     99 H43        -3.5350    6.9950   -2.1300 ha        1 MOL      0.142006
    100 H44        -5.4080    3.7500   -0.1000 ha        1 MOL      0.142006
    101 H45        -6.5790    5.5890   -1.1970 ho        1 MOL      0.428727
    102 N10         2.1990    2.9560   -1.0630 n         1 MOL     -0.783611
    103 C34         3.4940    2.3890   -1.3750 c3        1 MOL      0.091613
    104 C35         4.3060    2.2360   -0.1170 c         1 MOL      0.359981
    105 O15         4.7350    1.1440    0.3400 o         1 MOL     -0.429876
    106 C36         4.1730    3.1780   -2.5590 c3        1 MOL      0.070210
    107 C37         3.2790    3.5150   -3.7510 c3        1 MOL      0.293033
    108 C38         5.3970    2.3230   -2.9820 c3        1 MOL     -0.359324
    109 C39         2.6860    2.4330   -4.6140 c3        1 MOL     -0.409620
    110 H46         1.9290    3.8830   -1.3590 hn        1 MOL      0.374213
    111 H47         3.3440    1.3560   -1.7090 h1        1 MOL      0.055279
    112 H48         4.4890    4.1450   -2.1570 hc        1 MOL     -0.032895
    113 H49         3.8070    4.1980   -4.4120 hc        1 MOL     -0.042306
    114 H50         2.4700    4.1860   -3.4750 hc        1 MOL     -0.042306
    115 H51         5.9390    1.9840   -2.1050 hc        1 MOL      0.094827
    116 H52         5.1150    1.4980   -3.6360 hc        1 MOL      0.094827
    117 H53         6.0610    2.9910   -3.5290 hc        1 MOL      0.094827
    118 H54         2.2110    1.8210   -3.8500 hc        1 MOL      0.109171
    119 H55         2.0430    2.8660   -5.3820 hc        1 MOL      0.109171
    120 H56         3.4470    1.8490   -5.1290 hc        1 MOL      0.109171
    121 N11         4.5210    3.3600    0.5780 n         1 MOL     -0.096903
    122 C40         5.3230    3.4240    1.8350 c3        1 MOL     -0.064018
    123 C41         6.6490    2.7540    1.7870 c         1 MOL      0.311920
    124 O16         7.1940    2.1860    2.7240 o         1 MOL     -0.444866
    125 C42         5.5300    4.8530    2.3220 c3        1 MOL      0.027494
    126 O17         5.5360    5.6770    1.2440 oh        1 MOL     -0.631375
    127 H57         4.2150    4.2520    0.2120 hn        1 MOL      0.262076
    128 H58         4.6880    2.9870    2.6100 h1        1 MOL      0.088167
    129 H59         6.4700    4.9340    2.8620 h1        1 MOL      0.092048
    130 H60         4.7120    5.2050    2.9440 h1        1 MOL      0.092048
    131 H61         5.8090    6.5500    1.5320 ho        1 MOL      0.440059
    132 N12         7.3000    2.9550    0.6280 n         1 MOL     -0.129660
    133 C43         8.6260    2.3160    0.2410 c3        1 MOL      0.254081
    134 C44         8.8410    0.8590    0.6320 c         1 MOL      0.484717
    135 O18         9.8220    0.4780    1.1830 o         1 MOL     -0.496508
    136 C45         9.7490    3.2610    0.4260 c3        1 MOL     -0.332175
    137 H62         7.0500    3.6440   -0.0660 hn        1 MOL      0.174887
    138 H63         8.5370    2.3020   -0.8510 h1        1 MOL      0.004196
    139 H64         9.7700    3.6350    1.4500 hc        1 MOL      0.082897
    140 H65        10.6950    2.7460    0.2690 hc        1 MOL      0.082897
    141 H66         9.6860    4.1250   -0.2230 hc        1 MOL      0.082897
    142 N13         7.7670    0.0850    0.3420 n         1 MOL     -0.478729
    143 C46         7.6900   -1.3760    0.6270 c3        1 MOL      0.389220
    144 C47         7.1530   -2.1660   -0.6320 c         1 MOL      0.333662
    145 O19         6.6070   -1.6400   -1.5660 o         1 MOL     -0.438978
    146 C48         6.7550   -1.5340    1.8890 c3        1 MOL     -0.349012
    147 H67         6.9390    0.5780    0.0160 hn        1 MOL      0.080100
    148 H68         8.6500   -1.8350    0.8460 h1        1 MOL     -0.011944
    149 H69         5.8340   -0.9930    1.6710 hc        1 MOL      0.099277
    150 H70         6.6310   -2.5910    2.1180 hc        1 MOL      0.099277
    151 H71         7.2450   -0.9970    2.6970 hc        1 MOL      0.099277
    152 N14         7.3800   -3.4780   -0.5590 n         1 MOL     -0.360876
    153 C49         6.7780   -4.4670   -1.4990 c3        1 MOL     -0.172246
    154 C50         7.1780   -4.1750   -2.9960 c         1 MOL      0.445042
    155 O20         6.5610   -4.7230   -3.9070 o         1 MOL     -0.486611
    156 C51         5.2800   -4.4890   -1.3190 c3        1 MOL      0.102823
    157 C52         4.6750   -4.9000    0.0180 c3        1 MOL     -0.031232
    158 C53         3.1500   -4.8540   -0.0320 c         1 MOL      0.658217
    159 O21         2.4570   -3.8610    0.3770 o         1 MOL     -0.704074
    160 O22         2.5990   -5.8550   -0.5720 o         1 MOL     -0.704074
    161 H72         8.1050   -3.7520    0.0850 hn        1 MOL      0.279373
    162 H73         7.1960   -5.3910   -1.1000 h1        1 MOL      0.122841
    163 H74         4.9380   -5.2930   -1.9640 hc        1 MOL      0.025697
    164 H75         4.7950   -3.5770   -1.6580 hc        1 MOL      0.025697
    165 H76         5.0720   -4.3190    0.8450 hc        1 MOL     -0.005395
    166 H77         4.9630   -5.9090    0.3330 hc        1 MOL     -0.005395
    167 N15         8.1770   -3.3700   -3.2570 n         1 MOL     -0.269818
    168 C54         8.3720   -2.6450   -4.5200 c3        1 MOL     -0.190430
    169 H78         9.2130   -1.9590   -4.4190 h1        1 MOL      0.105767
    170 H79         8.5770   -3.3560   -5.3200 h1        1 MOL      0.105767
    171 H80         7.4700   -2.0800   -4.7580 h1        1 MOL      0.105767
    172 H81         8.6630   -3.0670   -2.4210 hn        1 MOL      0.220658
    173 Ca1         1.2370   -1.8690   -0.6650 Ca        1 MOL      1.769922
    174 O23        -0.3780   -4.1970   -0.4180 oh        1 MOL     -0.844608
    175 H82        -1.0590   -4.7560   -0.8120 ho        1 MOL      0.407685
    176 H83         0.4020   -4.7360   -0.4280 ho        1 MOL      0.407685
    177 O24         3.9560   -1.2100   -0.7510 oh        1 MOL     -0.844608
    178 H84         4.1890   -0.3940   -0.3230 ho        1 MOL      0.407685
    179 H85         4.7500   -1.4800   -1.1980 ho        1 MOL      0.407685
    180 O25         0.7300   -0.1220   -3.0720 oh        1 MOL     -0.844608
    181 H86         1.0400    0.2350   -3.9000 ho        1 MOL      0.407685
    182 H87        -0.2140    0.0190   -3.0800 ho        1 MOL      0.407685
    183 O26         1.5590   -3.4540   -3.0200 oh        1 MOL     -0.844608
    184 H88         1.3510   -4.3880   -2.8930 ho        1 MOL      0.407685
    185 H89         1.2430   -3.2500   -3.8950 ho        1 MOL      0.407685
@<TRIPOS>BOND
     1    1    2 1   
     2    1    4 1   
     3    1    5 1   
     4    1    6 1   
     5    2    3 2   
     6    2    7 1   
     7    7    8 1   
     8    7   15 1   
     9    8    9 1   
    10    8   11 1   
    11    8   16 1   
    12    9   10 2   
    13    9   19 1   
    14   11   12 1   
    15   11   17 1   
    16   11   18 1   
    17   12   13 1   
    18   12   14 1   
    19   19   20 1   
    20   19   28 1   
    21   20   21 1   
    22   20   23 1   
    23   20   29 1   
    24   21   22 2   
    25   21   41 1   
    26   23   24 1   
    27   23   30 1   
    28   23   31 1   
    29   24   25 1   
    30   24   32 1   
    31   24   33 1   
    32   25   26 1   
    33   25   34 1   
    34   25   35 1   
    35   26   27 1   
    36   26   36 1   
    37   26   37 1   
    38   27   38 1   
    39   27   39 1   
    40   27   40 1   
    41   41   42 1   
    42   41   49 1   
    43   42   43 1   
    44   42   45 1   
    45   42   50 1   
    46   43   44 2   
    47   43   53 1   
    48   45   46 1   
    49   45   51 1   
    50   45   52 1   
    51   46   47 1   
    52   46   48 1   
    53   53   54 1   
    54   53   57 1   
    55   54   55 1   
    56   54   58 1   
    57   54   59 1   
    58   55   56 2   
    59   55   60 1   
    60   60   61 1   
    61   60   68 1   
    62   61   62 1   
    63   61   64 1   
    64   61   69 1   
    65   62   63 2   
    66   62   74 1   
    67   64   65 1   
    68   64   70 1   
    69   64   71 1   
    70   65   66 1   
    71   65   67 2   
    72   66   72 1   
    73   66   73 1   
    74   74   75 1   
    75   74   78 1   
    76   75   76 1   
    77   75   79 1   
    78   75   80 1   
    79   76   77 2   
    80   76   81 1   
    81   81   82 1   
    82   81   93 1   
    83   82   83 1   
    84   82   85 1   
    85   82   94 1   
    86   83   84 2   
    87   83  102 1   
    88   85   86 1   
    89   85   95 1   
    90   85   96 1   
    91   86   87 ar  
    92   86   88 ar  
    93   87   89 ar  
    94   87   97 1   
    95   88   90 ar  
    96   88   98 1   
    97   89   91 ar  
    98   89   99 1   
    99   90   91 ar  
   100   90  100 1   
   101   91   92 1   
   102   92  101 1   
   103  102  103 1   
   104  102  110 1   
   105  103  104 1   
   106  103  106 1   
   107  103  111 1   
   108  104  105 2   
   109  104  121 1   
   110  106  107 1   
   111  106  108 1   
   112  106  112 1   
   113  107  109 1   
   114  107  113 1   
   115  107  114 1   
   116  108  115 1   
   117  108  116 1   
   118  108  117 1   
   119  109  118 1   
   120  109  119 1   
   121  109  120 1   
   122  121  122 1   
   123  121  127 1   
   124  122  123 1   
   125  122  125 1   
   126  122  128 1   
   127  123  124 2   
   128  123  132 1   
   129  125  126 1   
   130  125  129 1   
   131  125  130 1   
   132  126  131 1   
   133  132  133 1   
   134  132  137 1   
   135  133  134 1   
   136  133  136 1   
   137  133  138 1   
   138  134  135 2   
   139  134  142 1   
   140  136  139 1   
   141  136  140 1   
   142  136  141 1   
   143  142  143 1   
   144  142  147 1   
   145  143  144 1   
   146  143  146 1   
   147  143  148 1   
   148  144  145 2   
   149  144  152 1   
   150  146  149 1   
   151  146  150 1   
   152  146  151 1   
   153  152  153 1   
   154  152  161 1   
   155  153  154 1   
   156  153  156 1   
   157  153  162 1   
   158  154  155 2   
   159  154  167 1   
   160  156  157 1   
   161  156  163 1   
   162  156  164 1   
   163  157  158 1   
   164  157  165 1   
   165  157  166 1   
   166  158  159 1   
   167  158  160 1   
   168  167  168 1   
   169  167  172 1   
   170  168  169 1   
   171  168  170 1   
   172  168  171 1   
   173  174  175 1   
   174  174  176 1   
   175  177  178 1   
   176  177  179 1   
   177  180  181 1   
   178  180  182 1   
   179  183  184 1   
   180  183  185 1   
@<TRIPOS>SUBSTRUCTURE
     1 MOL         1 TEMP              0 ****  ****    0 ROOT
