@<TRIPOS>MOLECULE
MOL
  192   187     1     0     0
SMALL
resp


@<TRIPOS>ATOM
      1 C1         11.6580    5.5280   -2.5880 c3        1 MOL     -0.342313
      2 C2         11.6970    4.1560   -1.8290 c         1 MOL      0.648528
      3 O1         12.7070    3.5330   -1.7260 o         1 MOL     -0.559414
      4 H1         12.6110    6.0410   -2.4600 hc        1 MOL      0.089718
      5 H2         11.4810    5.3520   -3.6490 hc        1 MOL      0.089718
      6 H3         10.8560    6.1450   -2.1830 hc        1 MOL      0.089718
      7 N1         10.5920    3.7660   -1.2360 n         1 MOL     -0.225546
      8 C3         10.5010    2.5250   -0.4160 c3        1 MOL     -0.534833
      9 C4          9.1750    1.8340   -0.5310 c         1 MOL      0.652826
     10 O2          8.1130    2.4880   -0.7830 o         1 MOL     -0.589866
     11 C5         10.7930    2.8760    1.0010 c3        1 MOL      0.106880
     12 C6          9.9300    4.0010    1.7270 c         1 MOL      0.598020
     13 O3          8.8230    4.3910    1.2740 o         1 MOL     -0.660660
     14 O4         10.3710    4.3370    2.8300 o         1 MOL     -0.660660
     15 H4          9.8030    4.4060   -1.2190 hn        1 MOL      0.111891
     16 H5         11.2230    1.8040   -0.8050 h1        1 MOL      0.170120
     17 H6         11.8440    3.1290    1.1420 hc        1 MOL      0.049535
     18 H7         10.5870    1.9620    1.5620 hc        1 MOL      0.049535
     19 N2          9.2140    0.4810   -0.4910 n         1 MOL     -0.291570
     20 C7          8.0990   -0.3230   -0.8440 c3        1 MOL     -0.035662
     21 C8          7.3220   -0.7090    0.4240 c         1 MOL      0.411304
     22 O5          7.8550   -1.2910    1.3800 o         1 MOL     -0.475344
     23 C9          8.6920   -1.5660   -1.6510 c3        1 MOL     -0.501161
     24 C10         7.5130   -2.6040   -1.7930 c3        1 MOL      0.143427
     25 C11         8.0570   -3.8110   -2.4790 c3        1 MOL     -0.222805
     26 C12         8.1750   -3.3880   -3.9320 c3        1 MOL      0.181768
     27 N3          8.6320   -4.4930   -4.7820 n4        1 MOL     -0.349481
     28 H8         10.0370   -0.0470   -0.2390 hn        1 MOL      0.283647
     29 H9          7.4910    0.2970   -1.4970 h1        1 MOL      0.092585
     30 H10         9.4620   -2.0260   -1.0210 hc        1 MOL      0.182986
     31 H11         9.1880   -1.3270   -2.5930 hc        1 MOL      0.182986
     32 H12         6.5990   -2.2750   -2.2820 hc        1 MOL      0.075351
     33 H13         7.1720   -3.0110   -0.8430 hc        1 MOL      0.075351
     34 H14         7.3160   -4.5980   -2.3320 hc        1 MOL      0.082692
     35 H15         9.0450   -4.0580   -2.0850 hc        1 MOL      0.082692
     36 H16         8.8780   -2.5710   -4.1130 hx        1 MOL      0.021122
     37 H17         7.1560   -3.1750   -4.2570 hx        1 MOL      0.021122
     38 H18         9.5780   -4.7680   -4.5410 hn        1 MOL      0.297171
     39 H19         8.0020   -5.2550   -4.5930 hn        1 MOL      0.297171
     40 H20         8.6020   -4.2070   -5.7480 hn        1 MOL      0.297171
     41 N4          6.0100   -0.3950    0.4040 n         1 MOL     -0.387563
     42 C13         5.0810   -0.5660    1.5750 c3        1 MOL      0.042257
     43 C14         3.5970   -0.3070    1.1280 c         1 MOL      0.183536
     44 O6          3.3890    0.1950    0.0320 o         1 MOL     -0.380927
     45 C15         5.4280    0.3740    2.7710 c3        1 MOL     -0.076220
     46 C16         5.7060    1.7850    2.3310 c         1 MOL      0.627342
     47 O7          6.8910    2.1760    2.2710 o         1 MOL     -0.669323
     48 O8          4.7870    2.5850    2.0810 o         1 MOL     -0.669323
     49 H21         5.7070    0.1320   -0.3960 hn        1 MOL      0.210461
     50 H22         5.1440   -1.5880    1.9450 h1        1 MOL      0.147150
     51 H23         6.2490   -0.1240    3.2890 hc        1 MOL      0.062193
     52 H24         4.5890    0.3860    3.4630 hc        1 MOL      0.062193
     53 N5          2.5470   -0.7600    1.8300 n         1 MOL     -0.279882
     54 C17         2.6160   -1.7280    2.9740 c3        1 MOL     -0.093376
     55 C18         2.5000   -3.2110    2.6420 c         1 MOL      0.591625
     56 O9          2.9030   -3.5870    1.5080 o         1 MOL     -0.548579
     57 H25         1.6110   -0.4880    1.5630 hn        1 MOL      0.323059
     58 H26         1.8860   -1.3950    3.7160 h1        1 MOL      0.079743
     59 H27         3.6130   -1.6420    3.3910 h1        1 MOL      0.079743
     60 N6          2.0820   -4.0770    3.6110 n         1 MOL     -0.415235
     61 C19         2.0360   -5.5360    3.4750 c3        1 MOL      0.001614
     62 C20         1.3790   -6.0270    2.1560 c         1 MOL      0.431151
     63 O10         1.7550   -7.0460    1.5770 o         1 MOL     -0.523287
     64 C21         1.4240   -6.1440    4.6930 c3        1 MOL     -0.082756
     65 C22         1.8830   -5.4440    5.9730 c         1 MOL      0.689301
     66 O11         3.0480   -5.7190    6.4510 o         1 MOL     -0.663635
     67 O12         1.0390   -4.7190    6.4800 o         1 MOL     -0.663635
     68 H28         1.7950   -3.6160    4.4740 hn        1 MOL      0.260438
     69 H29         3.0300   -5.9780    3.3950 h1        1 MOL      0.091887
     70 H30         1.7630   -7.1800    4.7170 hc        1 MOL      0.012709
     71 H31         0.3540   -5.9960    4.5550 hc        1 MOL      0.012709
     72 N7          0.3610   -5.3440    1.6250 n         1 MOL     -0.264693
     73 C23        -0.3350   -5.5480    0.3460 c3        1 MOL      0.075895
     74 C24         0.0900   -4.6630   -0.8140 c         1 MOL      0.471437
     75 O13        -0.2530   -4.9410   -1.9610 o         1 MOL     -0.572569
     76 H32         0.2200   -4.4290    2.0150 hn        1 MOL      0.195881
     77 H33        -1.3860   -5.3500    0.5570 h1        1 MOL      0.046295
     78 H34        -0.2770   -6.5950    0.0550 h1        1 MOL      0.046295
     79 N8          0.8330   -3.5830   -0.5350 n         1 MOL     -0.233407
     80 C25         1.2690   -2.5190   -1.4900 c3        1 MOL     -0.020024
     81 C26         0.5540   -1.1390   -1.2040 c         1 MOL      0.198055
     82 O14         0.4960   -0.6270   -0.1290 o         1 MOL     -0.474325
     83 C27         2.7620   -2.3090   -1.4990 c3        1 MOL      0.639610
     84 C28         3.4610   -3.5500   -2.0090 c3        1 MOL     -0.712452
     85 O15         3.0740   -1.1460   -2.2720 oh        1 MOL     -0.706874
     86 H35         1.3130   -3.6020    0.3520 hn        1 MOL      0.163591
     87 H36         0.8970   -2.6600   -2.5120 h1        1 MOL      0.037434
     88 H37         3.0840   -2.0920   -0.4770 h1        1 MOL     -0.056430
     89 H38         3.2400   -0.3620   -1.7470 ho        1 MOL      0.373806
     90 H39         2.7620   -4.1050   -2.6370 hc        1 MOL      0.174632
     91 H40         4.4020   -3.3750   -2.5360 hc        1 MOL      0.174632
     92 H41         3.6690   -4.2950   -1.2440 hc        1 MOL      0.174632
     93 N9         -0.1510   -0.6430   -2.2050 n         1 MOL      0.031529
     94 C29        -0.9440    0.5530   -2.3290 c3        1 MOL     -0.224965
     95 C30        -2.3460    0.4550   -1.7030 c         1 MOL      0.545261
     96 O16        -2.8570    1.4130   -1.1330 o         1 MOL     -0.511519
     97 C31        -0.9850    0.9910   -3.7880 c3        1 MOL      0.142862
     98 C32         0.4390    1.0720   -4.4800 c3        1 MOL     -0.031902
     99 C33        -1.6950    2.3650   -4.0230 c3        1 MOL     -0.361447
    100 C34         1.5340    1.9360   -3.8820 c3        1 MOL     -0.015416
    101 H42        -0.0490   -1.1650   -3.0600 hn        1 MOL      0.184789
    102 H43        -0.3960    1.3090   -1.7590 h1        1 MOL      0.120576
    103 H44        -1.5880    0.2450   -4.3060 hc        1 MOL     -0.003583
    104 H45         0.3440    1.3260   -5.5380 hc        1 MOL     -0.000415
    105 H46         0.8510    0.0590   -4.4440 hc        1 MOL     -0.000415
    106 H47        -2.7430    2.2730   -3.7440 hc        1 MOL      0.107454
    107 H48        -1.2160    3.1620   -3.4630 hc        1 MOL      0.107454
    108 H49        -1.6280    2.6560   -5.0650 hc        1 MOL      0.107454
    109 H50         1.7590    1.5530   -2.8860 hc        1 MOL      0.004852
    110 H51         2.4820    2.0420   -4.4040 hc        1 MOL      0.004852
    111 H52         1.1350    2.9460   -3.7500 hc        1 MOL      0.004852
    112 N10        -2.9490   -0.7590   -1.8530 n         1 MOL     -0.348586
    113 C35        -4.1580   -1.1160   -1.0450 c3        1 MOL     -0.006653
    114 C36        -5.2430   -1.6160   -1.9700 c         1 MOL      0.608164
    115 O17        -4.9660   -2.2420   -2.9400 o         1 MOL     -0.513650
    116 C37        -3.8540   -2.1110    0.0990 c3        1 MOL      0.199614
    117 C38        -3.3350   -3.4520   -0.3260 c3        1 MOL     -0.220910
    118 O18        -2.9240   -1.6120    1.0990 oh        1 MOL     -0.554441
    119 H53        -2.5130   -1.5490   -2.2980 hn        1 MOL      0.206121
    120 H54        -4.5890   -0.1690   -0.7110 h1        1 MOL      0.063209
    121 H55        -4.8100   -2.3520    0.5740 h1        1 MOL     -0.002595
    122 H56        -3.2310   -0.7260    1.3460 ho        1 MOL      0.390919
    123 H57        -3.0870   -4.0150    0.5710 hc        1 MOL      0.072269
    124 H58        -4.0240   -3.9420   -1.0200 hc        1 MOL      0.072269
    125 H59        -2.3850   -3.2500   -0.8290 hc        1 MOL      0.072269
    126 N11        -6.5180   -1.3620   -1.6050 n         1 MOL     -0.525848
    127 C39        -7.7190   -1.9560   -2.3050 c3        1 MOL      0.015129
    128 C40        -8.7720   -0.8430   -2.4100 c         1 MOL      0.470573
    129 O19        -9.1910   -0.3370   -3.4870 o         1 MOL     -0.532931
    130 C41        -8.2280   -3.1950   -1.5660 c3        1 MOL      0.336872
    131 C42        -9.4330   -3.7650   -2.2700 c3        1 MOL     -0.525194
    132 O20        -8.5380   -2.8280   -0.2070 oh        1 MOL     -0.617066
    133 H60        -6.7110   -0.8660   -0.7460 hn        1 MOL      0.280494
    134 H61        -7.4990   -2.2350   -3.3340 h1        1 MOL      0.099850
    135 H62        -7.4810   -3.9830   -1.5350 h1        1 MOL      0.049661
    136 H63        -7.8770   -3.1100    0.4330 ho        1 MOL      0.404329
    137 H64        -9.5290   -4.7920   -1.9110 hc        1 MOL      0.146553
    138 H65       -10.3830   -3.2730   -2.0550 hc        1 MOL      0.146553
    139 H66        -9.2430   -3.8210   -3.3400 hc        1 MOL      0.146553
    140 N12        -9.2000   -0.2830   -1.2400 n         1 MOL     -0.213131
    141 C43        -9.9480    0.9810   -1.1620 c3        1 MOL     -0.107564
    142 C44        -9.6410    1.6690    0.1580 c         1 MOL      0.615761
    143 O21        -9.1210    1.1050    1.0900 o         1 MOL     -0.499836
    144 C45       -11.3940    0.6100   -1.3740 c3        1 MOL     -0.263433
    145 C46       -11.9020   -0.2940   -0.2000 c3        1 MOL     -0.008045
    146 C47       -13.3140   -0.8520   -0.4520 c3        1 MOL      0.024417
    147 C48       -13.7840   -1.6310    0.7460 c3        1 MOL     -0.010964
    148 N13       -15.1930   -2.0690    0.6580 n4        1 MOL     -0.112786
    149 H67        -8.8120   -0.7710   -0.4410 hn        1 MOL      0.169665
    150 H68        -9.6970    1.6700   -1.9690 h1        1 MOL      0.129461
    151 H69       -11.4530    0.0640   -2.3080 hc        1 MOL      0.111890
    152 H70       -11.9570    1.5320   -1.5380 hc        1 MOL      0.111890
    153 H71       -11.8380    0.0920    0.8180 hc        1 MOL      0.050383
    154 H72       -11.2460   -1.1610   -0.1970 hc        1 MOL      0.050383
    155 H73       -13.2970   -1.5110   -1.3170 hc        1 MOL      0.016752
    156 H74       -13.9920   -0.0300   -0.6500 hc        1 MOL      0.016752
    157 H75       -13.6560   -0.8900    1.5460 hx        1 MOL      0.078948
    158 H76       -13.2850   -2.5730    0.9710 hx        1 MOL      0.078948
    159 H77       -15.4000   -2.7130   -0.0940 hn        1 MOL      0.203227
    160 H78       -15.6990   -2.4380    1.4580 hn        1 MOL      0.203227
    161 H79       -15.7360   -1.2410    0.4680 hn        1 MOL      0.203227
    162 N14        -9.7860    2.9940    0.2780 n         1 MOL     -0.599765
    163 C49        -9.1510    3.7580    1.3920 c3        1 MOL      0.290895
    164 C50        -7.6430    3.6770    1.5860 c         1 MOL      0.286792
    165 O22        -7.1250    3.0890    2.5680 o         1 MOL     -0.519921
    166 C51        -9.5130    5.2410    1.3710 c3        1 MOL      0.046388
    167 C52       -10.9200    5.5790    1.8640 c3        1 MOL     -0.312430
    168 C53       -11.0780    6.9980    2.3750 c         1 MOL      0.773412
    169 O23       -12.0410    7.2800    3.1120 o         1 MOL     -0.663214
    170 O24       -10.2810    7.9010    2.0590 o         1 MOL     -0.663214
    171 H80       -10.1450    3.4910   -0.5190 hn        1 MOL      0.298721
    172 H81        -9.6650    3.3660    2.2760 h1        1 MOL      0.039246
    173 H82        -9.2410    5.7110    0.4150 hc        1 MOL      0.024175
    174 H83        -8.8460    5.7860    2.0410 hc        1 MOL      0.024175
    175 H84       -11.1350    4.8430    2.6380 hc        1 MOL      0.045730
    176 H85       -11.6500    5.3740    1.0710 hc        1 MOL      0.045730
    177 N15        -6.7690    4.0790    0.6340 n         1 MOL     -0.275441
    178 C54        -6.9450    4.7320   -0.6690 c3        1 MOL     -0.096535
    179 H86        -6.1200    5.4220   -0.8430 h1        1 MOL      0.062708
    180 H87        -6.9590    3.9770   -1.4550 h1        1 MOL      0.062708
    181 H88        -7.8870    5.2810   -0.6770 h1        1 MOL      0.062708
    182 H89        -5.8770    3.7990    1.0000 hn        1 MOL      0.275596
    183 Ca1         6.5000    4.1380    0.5480 Ca        1 MOL      1.697222
    184 O25         4.0840    5.3540    0.2790 oh        1 MOL     -0.833092
    185 H90         3.9410    6.1900    0.7380 ho        1 MOL      0.412684
    186 H91         3.4610    4.7520    0.6820 ho        1 MOL      0.412684
    187 O26         6.1610    5.5420    2.7470 oh        1 MOL     -0.833092
    188 H92         5.5990    6.2770    3.0080 ho        1 MOL      0.412684
    189 H93         6.9890    5.6890    3.2030 ho        1 MOL      0.412684
    190 O27         4.8050    2.6470   -0.7690 oh        1 MOL     -0.833092
    191 H94         4.0230    2.2890   -0.3470 ho        1 MOL      0.412684
    192 H95         4.9060    2.1230   -1.5710 ho        1 MOL      0.412684
@<TRIPOS>BOND
     1    1    2 1   
     2    1    4 1   
     3    1    5 1   
     4    1    6 1   
     5    2    3 2   
     6    2    7 1   
     7    7    8 1   
     8    7   15 1   
     9    8    9 1   
    10    8   11 1   
    11    8   16 1   
    12    9   10 2   
    13    9   19 1   
    14   11   12 1   
    15   11   17 1   
    16   11   18 1   
    17   12   13 1   
    18   12   14 1   
    19   19   20 1   
    20   19   28 1   
    21   20   21 1   
    22   20   23 1   
    23   20   29 1   
    24   21   22 2   
    25   21   41 1   
    26   23   24 1   
    27   23   30 1   
    28   23   31 1   
    29   24   25 1   
    30   24   32 1   
    31   24   33 1   
    32   25   26 1   
    33   25   34 1   
    34   25   35 1   
    35   26   27 1   
    36   26   36 1   
    37   26   37 1   
    38   27   38 1   
    39   27   39 1   
    40   27   40 1   
    41   41   42 1   
    42   41   49 1   
    43   42   43 1   
    44   42   45 1   
    45   42   50 1   
    46   43   44 2   
    47   43   53 1   
    48   45   46 1   
    49   45   51 1   
    50   45   52 1   
    51   46   47 1   
    52   46   48 1   
    53   53   54 1   
    54   53   57 1   
    55   54   55 1   
    56   54   58 1   
    57   54   59 1   
    58   55   56 2   
    59   55   60 1   
    60   60   61 1   
    61   60   68 1   
    62   61   62 1   
    63   61   64 1   
    64   61   69 1   
    65   62   63 2   
    66   62   72 1   
    67   64   65 1   
    68   64   70 1   
    69   64   71 1   
    70   65   66 1   
    71   65   67 1   
    72   72   73 1   
    73   72   76 1   
    74   73   74 1   
    75   73   77 1   
    76   73   78 1   
    77   74   75 2   
    78   74   79 1   
    79   79   80 1   
    80   79   86 1   
    81   80   81 1   
    82   80   83 1   
    83   80   87 1   
    84   81   82 2   
    85   81   93 1   
    86   83   84 1   
    87   83   85 1   
    88   83   88 1   
    89   84   90 1   
    90   84   91 1   
    91   84   92 1   
    92   85   89 1   
    93   93   94 1   
    94   93  101 1   
    95   94   95 1   
    96   94   97 1   
    97   94  102 1   
    98   95   96 2   
    99   95  112 1   
   100   97   98 1   
   101   97   99 1   
   102   97  103 1   
   103   98  100 1   
   104   98  104 1   
   105   98  105 1   
   106   99  106 1   
   107   99  107 1   
   108   99  108 1   
   109  100  109 1   
   110  100  110 1   
   111  100  111 1   
   112  112  113 1   
   113  112  119 1   
   114  113  114 1   
   115  113  116 1   
   116  113  120 1   
   117  114  115 2   
   118  114  126 1   
   119  116  117 1   
   120  116  118 1   
   121  116  121 1   
   122  117  123 1   
   123  117  124 1   
   124  117  125 1   
   125  118  122 1   
   126  126  127 1   
   127  126  133 1   
   128  127  128 1   
   129  127  130 1   
   130  127  134 1   
   131  128  129 2   
   132  128  140 1   
   133  130  131 1   
   134  130  132 1   
   135  130  135 1   
   136  131  137 1   
   137  131  138 1   
   138  131  139 1   
   139  132  136 1   
   140  140  141 1   
   141  140  149 1   
   142  141  142 1   
   143  141  144 1   
   144  141  150 1   
   145  142  143 2   
   146  142  162 1   
   147  144  145 1   
   148  144  151 1   
   149  144  152 1   
   150  145  146 1   
   151  145  153 1   
   152  145  154 1   
   153  146  147 1   
   154  146  155 1   
   155  146  156 1   
   156  147  148 1   
   157  147  157 1   
   158  147  158 1   
   159  148  159 1   
   160  148  160 1   
   161  148  161 1   
   162  162  163 1   
   163  162  171 1   
   164  163  164 1   
   165  163  166 1   
   166  163  172 1   
   167  164  165 2   
   168  164  177 1   
   169  166  167 1   
   170  166  173 1   
   171  166  174 1   
   172  167  168 1   
   173  167  175 1   
   174  167  176 1   
   175  168  169 1   
   176  168  170 1   
   177  177  178 1   
   178  177  182 1   
   179  178  179 1   
   180  178  180 1   
   181  178  181 1   
   182  184  185 1   
   183  184  186 1   
   184  187  188 1   
   185  187  189 1   
   186  190  191 1   
   187  190  192 1   
@<TRIPOS>SUBSTRUCTURE
     1 MOL         1 TEMP              0 ****  ****    0 ROOT
