@<TRIPOS>MOLECULE
MOL
  181   177     1     0     0
SMALL
resp


@<TRIPOS>ATOM
      1 C1          8.5550    7.2240   -1.6880 c3        1 MOL     -0.369910
      2 C2          7.3540    6.3780   -1.1610 c         1 MOL      0.605840
      3 O1          6.4240    6.8180   -0.4520 o         1 MOL     -0.595201
      4 H1          8.4260    8.2630   -1.3890 hc        1 MOL      0.106056
      5 H2          9.4840    6.8380   -1.2680 hc        1 MOL      0.106056
      6 H3          8.5950    7.1610   -2.7750 hc        1 MOL      0.106056
      7 N1          7.2630    5.0980   -1.3000 n         1 MOL     -0.502172
      8 C3          8.3260    4.1130   -1.5110 c3        1 MOL      0.120874
      9 C4          8.9190    3.5530   -0.2110 c         1 MOL      0.450737
     10 O2         10.0370    3.0040   -0.1630 o         1 MOL     -0.563097
     11 C5          7.8300    2.9580   -2.4430 c3        1 MOL     -0.111665
     12 C6          6.5490    2.2580   -1.9830 c         1 MOL      0.568029
     13 O3          6.1290    2.4260   -0.8730 o         1 MOL     -0.651856
     14 O4          5.9650    1.5190   -2.8460 o         1 MOL     -0.651856
     15 H4          6.4700    4.7600   -0.7870 hn        1 MOL      0.337345
     16 H5          9.2200    4.4460   -2.0420 h1        1 MOL      0.046167
     17 H6          8.5990    2.1910   -2.4410 hc        1 MOL      0.032620
     18 H7          7.6670    3.2870   -3.4670 hc        1 MOL      0.032620
     19 N2          8.2260    3.7880    0.9200 n         1 MOL     -0.303821
     20 C7          8.6140    3.4610    2.2420 c3        1 MOL      0.073396
     21 C8          8.5470    1.8710    2.4220 c         1 MOL      0.348493
     22 O5          9.1580    1.3010    3.3330 o         1 MOL     -0.546020
     23 C9          7.7720    4.2300    3.3020 c3        1 MOL     -0.332167
     24 H8          7.3300    4.2440    0.7990 hn        1 MOL      0.234302
     25 H9          9.6740    3.7300    2.1620 h1        1 MOL      0.071145
     26 H10         7.6700    5.2870    3.0510 hc        1 MOL      0.115189
     27 H11         6.7990    3.7480    3.3790 hc        1 MOL      0.115189
     28 H12         8.3020    4.2360    4.2500 hc        1 MOL      0.115189
     29 N3          7.7790    1.1820    1.6230 n         1 MOL     -0.060496
     30 C10         7.3920   -0.2000    1.5320 c3        1 MOL      0.010508
     31 C11         7.2790   -0.5610    0.0910 c         1 MOL      0.289607
     32 O6          6.1760   -0.5300   -0.4620 o         1 MOL     -0.485236
     33 C12         6.1610   -0.5670    2.4610 c3        1 MOL      0.099834
     34 C13         4.9970    0.4890    2.4580 c         1 MOL      0.600861
     35 O7          4.4070    0.6730    1.4250 o         1 MOL     -0.694873
     36 O8          4.7870    1.1370    3.5020 o         1 MOL     -0.694873
     37 H13         7.3260    1.7670    0.9300 hn        1 MOL      0.144312
     38 H14         8.2430   -0.7810    1.9030 h1        1 MOL      0.026368
     39 H15         6.6080   -0.6590    3.4480 hc        1 MOL     -0.021145
     40 H16         5.7740   -1.5770    2.3610 hc        1 MOL     -0.021145
     41 N4          8.3940   -0.8390   -0.5210 n         1 MOL     -0.294245
     42 C14         8.5750   -1.0690   -1.9530 c3        1 MOL     -0.010350
     43 C15         7.6630   -2.2250   -2.6020 c         1 MOL      0.418201
     44 O9          6.9910   -2.0640   -3.5940 o         1 MOL     -0.475927
     45 H17         9.2940   -0.8750   -0.0570 hn        1 MOL      0.268877
     46 H18         9.6060   -1.3060   -2.2280 h1        1 MOL      0.073176
     47 H19         8.2790   -0.1690   -2.4940 h1        1 MOL      0.073176
     48 N5          7.6100   -3.3510   -1.9010 n         1 MOL     -0.462933
     49 C16         6.4370   -4.2740   -1.9630 c3        1 MOL      0.413855
     50 C17         5.4720   -4.1090   -0.7660 c         1 MOL      0.468085
     51 O10         5.9900   -4.0260    0.3160 o         1 MOL     -0.498837
     52 C18         6.9610   -5.6330   -2.1020 c3        1 MOL     -0.499405
     53 C19         5.7950   -6.5940   -2.1780 c         1 MOL      0.706767
     54 N6          5.7210   -7.4990   -1.2380 n         1 MOL     -0.791591
     55 O11         4.9270   -6.5000   -3.0100 o         1 MOL     -0.572688
     56 H20         8.2690   -3.5480   -1.1640 hn        1 MOL      0.261974
     57 H21         5.8850   -3.9640   -2.8460 h1        1 MOL     -0.027728
     58 H22         7.6910   -5.8420   -1.3190 hc        1 MOL      0.127461
     59 H23         7.4710   -5.7110   -3.0690 hc        1 MOL      0.127461
     60 H24         6.4640   -7.4670   -0.5630 hn        1 MOL      0.373146
     61 H25         4.9890   -8.1920   -1.2850 hn        1 MOL      0.373146
     62 N7          4.1400   -4.3490   -0.9460 n         1 MOL     -0.442219
     63 C20         3.1290   -4.1790    0.0380 c3        1 MOL      0.002796
     64 C21         2.9570   -2.6940    0.4060 c         1 MOL      0.555254
     65 O12         3.2450   -1.7440   -0.3510 o         1 MOL     -0.605506
     66 H26         3.8010   -4.4700   -1.8890 hn        1 MOL      0.302705
     67 H27         3.4460   -4.7230    0.9320 h1        1 MOL      0.098383
     68 H28         2.1950   -4.5580   -0.3740 h1        1 MOL      0.098383
     69 N8          2.3000   -2.3970    1.5220 n         1 MOL     -0.380618
     70 C22         1.3440   -3.2550    2.3130 c3        1 MOL     -0.015923
     71 C23        -0.1230   -2.8740    2.2060 c         1 MOL      0.608164
     72 O13        -0.9340   -3.7810    2.2700 o         1 MOL     -0.586423
     73 C24         1.6290   -3.3000    3.8070 c3        1 MOL      0.442370
     74 C25         2.8510   -4.1750    3.9830 c3        1 MOL     -0.538815
     75 O14         1.8130   -2.0080    4.4520 oh        1 MOL     -0.578388
     76 H29         2.2030   -1.4030    1.7140 hn        1 MOL      0.280611
     77 H30         1.4250   -4.2720    1.9370 h1        1 MOL      0.024381
     78 H31         0.8040   -3.7650    4.3410 h1        1 MOL     -0.014420
     79 H32         1.2240   -1.9370    5.2090 ho        1 MOL      0.387939
     80 H33         2.7390   -5.1370    3.4790 hc        1 MOL      0.128489
     81 H34         3.7710   -3.6680    3.6790 hc        1 MOL      0.128489
     82 H35         2.9680   -4.3630    5.0480 hc        1 MOL      0.128489
     83 N9         -0.4960   -1.6130    2.0040 n         1 MOL     -0.660231
     84 C26        -1.9010   -1.1840    1.9210 c3        1 MOL      0.345228
     85 C27        -2.0960   -0.5970    0.5080 c         1 MOL      0.489825
     86 O15        -1.2680    0.1110   -0.0350 o         1 MOL     -0.581034
     87 C28        -2.1660   -0.1750    3.0180 c3        1 MOL     -0.103390
     88 C29        -2.0340   -0.7930    4.4260 c3        1 MOL     -0.270442
     89 C30        -3.6370    0.5270    3.0030 c3        1 MOL     -0.124542
     90 C31        -2.9190   -2.0130    4.8050 c3        1 MOL     -0.129780
     91 H36         0.2200   -0.9140    1.8290 hn        1 MOL      0.298544
     92 H37        -2.5770   -2.0300    2.0360 h1        1 MOL      0.157342
     93 H38        -1.4870    0.6660    2.9250 hc        1 MOL      0.060743
     94 H39        -2.2530   -0.0000    5.1460 hc        1 MOL      0.103186
     95 H40        -1.0090   -1.1000    4.6000 hc        1 MOL      0.103186
     96 H41        -4.4080   -0.1820    3.2820 hc        1 MOL      0.071045
     97 H42        -3.6370    1.2210    3.8340 hc        1 MOL      0.071045
     98 H43        -3.7700    0.9950    2.0310 hc        1 MOL      0.071045
     99 H44        -3.9700   -1.7780    4.9900 hc        1 MOL      0.031703
    100 H45        -2.9930   -2.8120    4.0660 hc        1 MOL      0.031703
    101 H46        -2.5810   -2.3300    5.7850 hc        1 MOL      0.031703
    102 N10        -3.1940   -0.8560   -0.1760 n         1 MOL     -0.420487
    103 C32        -4.3910   -1.6320    0.2360 c3        1 MOL      0.019589
    104 C33        -5.7030   -0.8550   -0.0710 c         1 MOL      0.529737
    105 O16        -5.7550    0.0460   -0.9090 o         1 MOL     -0.489400
    106 C34        -4.2640   -3.0240   -0.5080 c3        1 MOL     -0.054118
    107 C35        -3.8450   -3.0430   -1.9580 c         1 MOL      0.630223
    108 O17        -2.9340   -3.8230   -2.4020 o         1 MOL     -0.695351
    109 O18        -4.4990   -2.3260   -2.7750 o         1 MOL     -0.695351
    110 H47        -3.2780   -0.4450   -1.0940 hn        1 MOL      0.326284
    111 H48        -4.3640   -1.9090    1.2970 h1        1 MOL      0.022137
    112 H49        -5.1480   -3.6060   -0.2810 hc        1 MOL     -0.019764
    113 H50        -3.4800   -3.5320    0.0460 hc        1 MOL     -0.019764
    114 N11        -6.7890   -1.3460    0.4710 n         1 MOL     -0.644024
    115 C36        -8.1860   -1.1430    0.0890 c3        1 MOL      0.551913
    116 C37        -9.0250   -0.2380    1.0380 c         1 MOL      0.166655
    117 O19        -8.8560   -0.1600    2.2350 o         1 MOL     -0.487058
    118 C38        -8.7480   -2.5800   -0.1930 c3        1 MOL     -0.261341
    119 C39       -10.1150   -2.5380   -0.7570 ca        1 MOL      0.183376
    120 C40       -11.2570   -2.6970    0.1140 ca        1 MOL     -0.287610
    121 C41       -10.3500   -2.4560   -2.1680 ca        1 MOL     -0.287610
    122 C42       -12.5420   -2.5670   -0.4860 ca        1 MOL     -0.012598
    123 C43       -11.6360   -2.2930   -2.7660 ca        1 MOL     -0.012598
    124 C44       -12.7120   -2.3000   -1.8460 ca        1 MOL     -0.227452
    125 H51        -6.5940   -2.0730    1.1470 hn        1 MOL      0.296447
    126 H52        -8.0520   -0.6430   -0.8720 h1        1 MOL     -0.014669
    127 H53        -8.7020   -3.0590    0.7860 hc        1 MOL      0.084689
    128 H54        -8.1180   -3.1970   -0.8220 hc        1 MOL      0.084689
    129 H55       -11.1360   -2.8340    1.1760 ha        1 MOL      0.161585
    130 H56        -9.5070   -2.4890   -2.8370 ha        1 MOL      0.161585
    131 H57       -13.4110   -2.6020    0.1540 ha        1 MOL      0.099017
    132 H58       -11.7270   -2.2300   -3.8390 ha        1 MOL      0.099017
    133 H59       -13.6970   -2.1540   -2.2590 ha        1 MOL      0.114070
    134 N12       -10.0580    0.4670    0.4960 n         1 MOL      0.175506
    135 C45       -10.1360    0.8950   -0.9000 c3        1 MOL      0.055142
    136 C46        -9.0420    1.8360   -1.2690 c         1 MOL      0.543590
    137 O20        -8.6580    1.8830   -2.4360 o         1 MOL     -0.579825
    138 C47       -11.5460    1.5040   -0.9950 c3        1 MOL     -0.098195
    139 C48       -12.3000    1.1520    0.2400 c3        1 MOL      0.143478
    140 C49       -11.2670    0.7330    1.2780 c3        1 MOL     -0.132876
    141 H60       -10.1270   -0.0100   -1.5080 h1        1 MOL      0.010798
    142 H61       -11.5320    2.5820   -1.1360 hc        1 MOL      0.025896
    143 H62       -11.9380    1.0690   -1.9170 hc        1 MOL      0.025896
    144 H63       -12.9830    1.8950    0.6590 hc        1 MOL     -0.037703
    145 H64       -12.9410    0.3070   -0.0200 hc        1 MOL     -0.037703
    146 H65       -11.0480    1.6040    1.9030 h1        1 MOL      0.035657
    147 H66       -11.5590   -0.1890    1.7820 h1        1 MOL      0.035657
    148 N13        -8.5500    2.6640   -0.3600 n         1 MOL     -0.486601
    149 C50        -7.3940    3.6430   -0.7360 c3        1 MOL      0.090790
    150 C51        -7.7660    4.8650   -1.6590 c         1 MOL      0.442285
    151 O21        -8.3690    5.8520   -1.1970 o         1 MOL     -0.588875
    152 C52        -6.8360    4.1620    0.6310 c3        1 MOL      0.044710
    153 C53        -6.0440    3.1330    1.3700 c3        1 MOL     -0.160682
    154 C54        -5.3250    3.8730    2.4610 c         1 MOL      0.709546
    155 O22        -5.8670    3.9740    3.5820 o         1 MOL     -0.741120
    156 O23        -4.2080    4.4300    2.2140 o         1 MOL     -0.741120
    157 H67        -8.7280    2.4800    0.6200 hn        1 MOL      0.270759
    158 H68        -6.6210    3.0250   -1.2020 h1        1 MOL      0.108497
    159 H69        -7.6470    4.5120    1.2730 hc        1 MOL      0.025061
    160 H70        -6.2720    5.0650    0.4160 hc        1 MOL      0.025061
    161 H71        -5.2560    2.7370    0.7350 hc        1 MOL     -0.018701
    162 H72        -6.6070    2.2680    1.7350 hc        1 MOL     -0.018701
    163 N14        -7.4280    4.9500   -2.9390 n         1 MOL     -0.264355
    164 C55        -6.6180    4.1390   -3.8500 c3        1 MOL     -0.211063
    165 H73        -7.0270    3.1310   -3.8990 h1        1 MOL      0.094417
    166 H74        -6.6320    4.5850   -4.8440 h1        1 MOL      0.094417
    167 H75        -5.5920    4.0970   -3.4850 h1        1 MOL      0.094417
    168 H76        -7.6520    5.7980   -3.4230 hn        1 MOL      0.246054
    169 Ca1         3.9770    0.6410   -1.1130 Ca        1 MOL      1.722166
    170 O24         4.2160   -1.1010   -3.1090 oh        1 MOL     -0.825214
    171 H77         3.8350   -1.9740   -3.2140 ho        1 MOL      0.409108
    172 H78         4.8740   -1.0570   -3.7970 ho        1 MOL      0.409108
    173 O25         2.7810    3.0210   -0.3830 oh        1 MOL     -0.825214
    174 H79         2.0110    2.9160    0.1710 ho        1 MOL      0.409108
    175 H80         3.1760    3.8420   -0.0980 ho        1 MOL      0.409108
    176 O26         1.2080    0.7300   -1.3410 oh        1 MOL     -0.825214
    177 H81         0.5420    0.8070   -0.6490 ho        1 MOL      0.409108
    178 H82         0.7100    0.4830   -2.1180 ho        1 MOL      0.409108
    179 O27         3.0120    1.6640   -3.4960 oh        1 MOL     -0.825214
    180 H83         3.3970    2.1080   -4.2590 ho        1 MOL      0.409108
    181 H84         2.1790    2.1020   -3.3630 ho        1 MOL      0.409108
@<TRIPOS>BOND
     1    1    2 1   
     2    1    4 1   
     3    1    5 1   
     4    1    6 1   
     5    2    3 2   
     6    2    7 1   
     7    7    8 1   
     8    7   15 1   
     9    8    9 1   
    10    8   11 1   
    11    8   16 1   
    12    9   10 2   
    13    9   19 1   
    14   11   12 1   
    15   11   17 1   
    16   11   18 1   
    17   12   13 1   
    18   12   14 1   
    19   19   20 1   
    20   19   24 1   
    21   20   21 1   
    22   20   23 1   
    23   20   25 1   
    24   21   22 2   
    25   21   29 1   
    26   23   26 1   
    27   23   27 1   
    28   23   28 1   
    29   29   30 1   
    30   29   37 1   
    31   30   31 1   
    32   30   33 1   
    33   30   38 1   
    34   31   32 2   
    35   31   41 1   
    36   33   34 1   
    37   33   39 1   
    38   33   40 1   
    39   34   35 1   
    40   34   36 1   
    41   41   42 1   
    42   41   45 1   
    43   42   43 1   
    44   42   46 1   
    45   42   47 1   
    46   43   44 2   
    47   43   48 1   
    48   48   49 1   
    49   48   56 1   
    50   49   50 1   
    51   49   52 1   
    52   49   57 1   
    53   50   51 2   
    54   50   62 1   
    55   52   53 1   
    56   52   58 1   
    57   52   59 1   
    58   53   54 1   
    59   53   55 2   
    60   54   60 1   
    61   54   61 1   
    62   62   63 1   
    63   62   66 1   
    64   63   64 1   
    65   63   67 1   
    66   63   68 1   
    67   64   65 2   
    68   64   69 1   
    69   69   70 1   
    70   69   76 1   
    71   70   71 1   
    72   70   73 1   
    73   70   77 1   
    74   71   72 2   
    75   71   83 1   
    76   73   74 1   
    77   73   75 1   
    78   73   78 1   
    79   74   80 1   
    80   74   81 1   
    81   74   82 1   
    82   75   79 1   
    83   83   84 1   
    84   83   91 1   
    85   84   85 1   
    86   84   87 1   
    87   84   92 1   
    88   85   86 2   
    89   85  102 1   
    90   87   88 1   
    91   87   89 1   
    92   87   93 1   
    93   88   90 1   
    94   88   94 1   
    95   88   95 1   
    96   89   96 1   
    97   89   97 1   
    98   89   98 1   
    99   90   99 1   
   100   90  100 1   
   101   90  101 1   
   102  102  103 1   
   103  102  110 1   
   104  103  104 1   
   105  103  106 1   
   106  103  111 1   
   107  104  105 2   
   108  104  114 1   
   109  106  107 1   
   110  106  112 1   
   111  106  113 1   
   112  107  108 1   
   113  107  109 1   
   114  114  115 1   
   115  114  125 1   
   116  115  116 1   
   117  115  118 1   
   118  115  126 1   
   119  116  117 2   
   120  116  134 1   
   121  118  119 1   
   122  118  127 1   
   123  118  128 1   
   124  119  120 ar  
   125  119  121 ar  
   126  120  122 ar  
   127  120  129 1   
   128  121  123 ar  
   129  121  130 1   
   130  122  124 ar  
   131  122  131 1   
   132  123  124 ar  
   133  123  132 1   
   134  124  133 1   
   135  134  135 1   
   136  134  140 1   
   137  135  136 1   
   138  135  138 1   
   139  135  141 1   
   140  136  137 2   
   141  136  148 1   
   142  138  139 1   
   143  138  142 1   
   144  138  143 1   
   145  139  140 1   
   146  139  144 1   
   147  139  145 1   
   148  140  146 1   
   149  140  147 1   
   150  148  149 1   
   151  148  157 1   
   152  149  150 1   
   153  149  152 1   
   154  149  158 1   
   155  150  151 2   
   156  150  163 1   
   157  152  153 1   
   158  152  159 1   
   159  152  160 1   
   160  153  154 1   
   161  153  161 1   
   162  153  162 1   
   163  154  155 1   
   164  154  156 1   
   165  163  164 1   
   166  163  168 1   
   167  164  165 1   
   168  164  166 1   
   169  164  167 1   
   170  170  171 1   
   171  170  172 1   
   172  173  174 1   
   173  173  175 1   
   174  176  177 1   
   175  176  178 1   
   176  179  180 1   
   177  179  181 1   
@<TRIPOS>SUBSTRUCTURE
     1 MOL         1 TEMP              0 ****  ****    0 ROOT
