@<TRIPOS>MOLECULE
MOL
  181   177     1     0     0
SMALL
resp


@<TRIPOS>ATOM
      1 C1          0.7890    6.7250   -2.7560 c3        1 MOL     -0.373380
      2 C2          2.1260    6.5240   -1.9790 c         1 MOL      0.764397
      3 O1          2.3760    7.1240   -0.9700 o         1 MOL     -0.617428
      4 H1          0.1940    5.8150   -2.6960 hc        1 MOL      0.086630
      5 H2          0.2320    7.5520   -2.3140 hc        1 MOL      0.086630
      6 H3          1.0050    6.9490   -3.8000 hc        1 MOL      0.086630
      7 N1          2.9370    5.5860   -2.4370 n         1 MOL     -0.726366
      8 C3          4.1820    5.1890   -1.7870 c3        1 MOL      0.389341
      9 C4          3.8150    4.4100   -0.5360 c         1 MOL      0.738295
     10 O2          3.1630    3.3730   -0.5570 o         1 MOL     -0.655426
     11 C5          5.0480    4.4800   -2.7720 c3        1 MOL     -0.421024
     12 C6          6.3160    4.0030   -2.2030 c         1 MOL      0.781597
     13 O3          6.9710    3.2950   -3.0060 o         1 MOL     -0.746266
     14 O4          6.7550    4.3060   -1.0510 o         1 MOL     -0.746266
     15 H4          2.7150    5.1740   -3.3370 hn        1 MOL      0.316081
     16 H5          4.7520    6.0910   -1.5700 h1        1 MOL     -0.006145
     17 H6          5.2770    5.2100   -3.5530 hc        1 MOL      0.077820
     18 H7          4.5240    3.6040   -3.1730 hc        1 MOL      0.077820
     19 N2          4.2510    4.9620    0.6390 n         1 MOL     -0.694982
     20 C7          4.3160    4.2690    1.9580 c3        1 MOL      0.560329
     21 C8          2.8770    3.9210    2.4400 c         1 MOL      0.406292
     22 O5          1.8460    4.5260    2.1600 o         1 MOL     -0.497753
     23 C9          5.0970    5.1600    2.9310 c3        1 MOL     -0.536075
     24 H8          4.7870    5.8140    0.5180 hn        1 MOL      0.300117
     25 H9          4.8050    3.3200    1.7520 h1        1 MOL      0.000367
     26 H10         4.8290    6.2070    2.9510 hc        1 MOL      0.136058
     27 H11         4.8680    4.8030    3.9320 hc        1 MOL      0.136058
     28 H12         6.1500    5.1790    2.6400 hc        1 MOL      0.136058
     29 N3          2.8450    2.9300    3.3980 n         1 MOL     -0.515915
     30 C10         3.9400    1.9990    3.6360 c3        1 MOL      0.037180
     31 C11         4.1950    0.9440    2.4970 c         1 MOL      0.337848
     32 O6          3.4220    0.8100    1.5570 o         1 MOL     -0.286287
     33 C12         3.6130    1.1570    4.9050 c3        1 MOL     -0.252617
     34 C13         2.1930    0.6460    4.8790 c         1 MOL      0.684566
     35 O7          1.7540   -0.0770    3.9350 o         1 MOL     -0.677765
     36 O8          1.4700    0.8640    5.9110 o         1 MOL     -0.677765
     37 H13         2.0000    2.8210    3.9350 hn        1 MOL      0.366889
     38 H14         4.8740    2.5390    3.8020 h1        1 MOL      0.026053
     39 H15         3.6430    1.7240    5.8260 hc        1 MOL      0.065749
     40 H16         4.3000    0.3060    4.9350 hc        1 MOL      0.065749
     41 N4          5.3130    0.2590    2.5290 n         1 MOL     -0.487850
     42 C14         5.6440   -0.7120    1.5590 c3        1 MOL      0.291317
     43 C15         6.7920   -0.1810    0.5960 c         1 MOL      0.470956
     44 O9          7.1290    0.9890    0.5420 o         1 MOL     -0.455389
     45 H17         5.8420    0.1820    3.3960 hn        1 MOL      0.288553
     46 H18         4.7810   -0.9510    0.9340 h1        1 MOL     -0.033946
     47 H19         6.0310   -1.6320    1.9970 h1        1 MOL     -0.033946
     48 N5          7.4870   -1.0810   -0.1380 n         1 MOL     -0.565497
     49 C16         7.2300   -2.5390   -0.1820 c3        1 MOL      0.079349
     50 C17         6.0960   -3.0660   -1.1820 c         1 MOL      0.181573
     51 O10         5.8450   -4.2430   -1.2060 o         1 MOL     -0.428941
     52 C18         8.5150   -3.2840   -0.4520 c3        1 MOL     -0.340427
     53 C19         9.0110   -3.3290   -1.8740 c         1 MOL      0.722017
     54 N6         10.2180   -3.7230   -2.0840 n         1 MOL     -0.755033
     55 O11         8.3960   -2.8390   -2.8780 o         1 MOL     -0.547765
     56 H20         8.3370   -0.8130   -0.6260 hn        1 MOL      0.349776
     57 H21         7.0320   -2.8300    0.8540 h1        1 MOL      0.123771
     58 H22         8.3620   -4.3160   -0.1600 hc        1 MOL      0.107293
     59 H23         9.2600   -2.7910    0.1770 hc        1 MOL      0.107293
     60 H24        10.7940   -4.0930   -1.3420 hn        1 MOL      0.349578
     61 H25        10.5410   -3.7540   -3.0390 hn        1 MOL      0.349578
     62 N7          5.4140   -2.2040   -1.9080 n         1 MOL     -0.082173
     63 C20         4.4690   -2.4040   -2.9730 c3        1 MOL     -0.442872
     64 C21         3.1700   -3.1020   -2.5620 c         1 MOL      0.580855
     65 O12         2.1530   -2.9280   -3.2070 o         1 MOL     -0.560093
     66 H26         5.7340   -1.2540   -1.7850 hn        1 MOL      0.279869
     67 H27         5.0210   -3.0340   -3.6790 h1        1 MOL      0.194877
     68 H28         4.2820   -1.4380   -3.4430 h1        1 MOL      0.194877
     69 N8          3.0950   -3.9420   -1.5180 n         1 MOL     -0.234875
     70 C22         1.8300   -4.7320   -1.1540 c3        1 MOL     -0.526097
     71 C23         0.5740   -3.8770   -0.7670 c         1 MOL      1.220359
     72 O13         0.7490   -2.8760   -0.0170 o         1 MOL     -0.880564
     73 C24         2.0750   -5.9540   -0.2720 c3        1 MOL      0.428300
     74 C25         2.9680   -7.0230   -0.8880 c3        1 MOL     -0.249469
     75 O14         2.6730   -5.4340    0.9120 oh        1 MOL     -0.641940
     76 H29         3.9290   -4.1530   -0.9870 hn        1 MOL      0.298117
     77 H30         1.4970   -5.2240   -2.0790 h1        1 MOL      0.131633
     78 H31         1.1070   -6.3410    0.0590 h1        1 MOL      0.003069
     79 H32         1.9600   -5.2130    1.5190 ho        1 MOL      0.402721
     80 H33         2.4230   -7.7500   -1.5050 hc        1 MOL      0.071581
     81 H34         3.8420   -6.5540   -1.3320 hc        1 MOL      0.071581
     82 H35         3.3530   -7.6030   -0.0430 hc        1 MOL      0.071581
     83 N9         -0.5860   -4.0840   -1.4050 n         1 MOL     -0.793061
     84 C26        -1.7960   -3.2400   -1.2090 c3        1 MOL      0.118860
     85 C27        -2.4430   -3.5920    0.2070 c         1 MOL      0.150364
     86 O15        -2.5200   -4.7520    0.5800 o         1 MOL     -0.501481
     87 C28        -2.7980   -3.4660   -2.3460 c3        1 MOL      0.358055
     88 C29        -4.1090   -2.6780   -2.1340 c3        1 MOL      0.283226
     89 C30        -2.3060   -3.2370   -3.8040 c3        1 MOL     -0.371666
     90 C31        -5.3140   -3.1170   -2.9720 c3        1 MOL     -0.314931
     91 H36        -0.7490   -4.8440   -2.0480 hn        1 MOL      0.323253
     92 H37        -1.5290   -2.1870   -1.3150 h1        1 MOL      0.067747
     93 H38        -3.1330   -4.4970   -2.3380 hc        1 MOL     -0.070854
     94 H39        -3.8450   -1.6430   -2.3940 hc        1 MOL     -0.117939
     95 H40        -4.4340   -2.7470   -1.0900 hc        1 MOL     -0.117939
     96 H41        -1.5950   -4.0600   -3.9290 hc        1 MOL      0.074276
     97 H42        -3.0540   -3.2450   -4.5960 hc        1 MOL      0.074276
     98 H43        -1.7220   -2.3210   -3.8720 hc        1 MOL      0.074276
     99 H44        -5.2200   -2.7560   -3.9990 hc        1 MOL      0.055288
    100 H45        -5.4170   -4.1960   -2.9240 hc        1 MOL      0.055288
    101 H46        -6.1920   -2.5200   -2.7070 hc        1 MOL      0.055288
    102 N10        -2.8700   -2.5080    0.8660 n         1 MOL      0.301401
    103 C32        -3.6740   -2.5770    2.1450 c3        1 MOL     -0.140949
    104 C33        -5.0980   -1.9680    2.1470 c         1 MOL      0.371474
    105 O16        -5.8660   -2.2570    3.0020 o         1 MOL     -0.519824
    106 C34        -2.8410   -2.0260    3.3170 c3        1 MOL      0.061505
    107 C35        -1.5130   -2.6980    3.5440 c         1 MOL      0.602515
    108 O17        -1.5000   -3.7270    4.2590 o         1 MOL     -0.680726
    109 O18        -0.5050   -2.1170    3.0070 o         1 MOL     -0.680726
    110 H47        -2.8090   -1.6370    0.3580 hn        1 MOL      0.024720
    111 H48        -3.8770   -3.6240    2.3860 h1        1 MOL      0.089894
    112 H49        -3.3730   -2.0650    4.2620 hc        1 MOL     -0.005225
    113 H50        -2.7660   -0.9520    3.1960 hc        1 MOL     -0.005225
    114 N11        -5.3900   -1.0670    1.2210 n         1 MOL     -0.310155
    115 C36        -6.6610   -0.3680    1.0660 c3        1 MOL      0.642522
    116 C37        -6.4140    0.9670    0.3970 c         1 MOL      0.094800
    117 O19        -7.0160    1.2950   -0.6400 o         1 MOL     -0.470739
    118 C38        -7.6040   -1.3460    0.3790 c3        1 MOL     -0.439717
    119 C39        -9.0550   -0.9430    0.3460 ca        1 MOL      0.150516
    120 C40        -9.8650   -1.1660   -0.7750 ca        1 MOL     -0.124170
    121 C41        -9.6800   -0.5910    1.5690 ca        1 MOL     -0.124170
    122 C42       -11.2560   -0.9690   -0.6560 ca        1 MOL     -0.173948
    123 C43       -10.9970   -0.1890    1.6580 ca        1 MOL     -0.173948
    124 C44       -11.7620   -0.3690    0.5530 ca        1 MOL     -0.069578
    125 H51        -4.6630   -0.6450    0.6600 hn        1 MOL      0.036312
    126 H52        -7.0110   -0.0570    2.0510 h1        1 MOL     -0.061433
    127 H53        -7.6090   -2.3120    0.8710 hc        1 MOL      0.143593
    128 H54        -7.2100   -1.4490   -0.6340 hc        1 MOL      0.143593
    129 H55        -9.3730   -1.5310   -1.6620 ha        1 MOL      0.099623
    130 H56        -9.0520   -0.7920    2.4210 ha        1 MOL      0.099623
    131 H57       -11.9140   -1.1140   -1.4980 ha        1 MOL      0.117163
    132 H58       -11.5240    0.2360    2.5040 ha        1 MOL      0.117163
    133 H59       -12.8290   -0.2550    0.6700 ha        1 MOL      0.075045
    134 N12        -5.5600    1.8650    0.9120 n         1 MOL      0.018919
    135 C45        -5.3790    3.2460    0.4320 c3        1 MOL      0.076834
    136 C46        -4.9620    3.4540   -1.0170 c         1 MOL      0.126916
    137 O20        -5.5000    4.3450   -1.7210 o         1 MOL     -0.463075
    138 C47        -4.1730    3.8460    1.2470 c3        1 MOL      0.162150
    139 C48        -4.2760    3.1020    2.5590 c3        1 MOL     -0.286428
    140 C49        -4.8000    1.7350    2.1740 c3        1 MOL     -0.079038
    141 H60        -6.2020    3.9000    0.6880 h1        1 MOL      0.045172
    142 H61        -3.2750    3.4530    0.7760 hc        1 MOL     -0.013761
    143 H62        -4.1490    4.9350    1.2230 hc        1 MOL     -0.013761
    144 H63        -3.3190    2.9560    3.0520 hc        1 MOL      0.091386
    145 H64        -4.9380    3.7570    3.1280 hc        1 MOL      0.091386
    146 H65        -3.9710    1.0390    2.0650 h1        1 MOL      0.069797
    147 H66        -5.5360    1.3850    2.9010 h1        1 MOL      0.069797
    148 N13        -4.2350    2.4630   -1.5240 n         1 MOL      0.222662
    149 C50        -3.7260    2.3970   -2.8680 c3        1 MOL     -0.416319
    150 C51        -4.8930    2.2290   -3.9180 c         1 MOL      0.478657
    151 O21        -5.0240    3.0330   -4.8330 o         1 MOL     -0.517539
    152 C52        -2.6740    1.2610   -3.0520 c3        1 MOL      0.104323
    153 C53        -1.5480    1.1300   -1.9010 c3        1 MOL     -0.215072
    154 C54        -2.0080    0.2490   -0.7390 c         1 MOL      0.530041
    155 O22        -1.1050   -0.3210   -0.0370 o         1 MOL     -0.530263
    156 O23        -3.1820    0.1520   -0.4050 o         1 MOL     -0.530263
    157 H67        -3.8350    1.7700   -0.9120 hn        1 MOL      0.093036
    158 H68        -3.1960    3.3310   -3.0310 h1        1 MOL      0.141790
    159 H69        -2.1530    1.4050   -3.9940 hc        1 MOL      0.014915
    160 H70        -3.1350    0.2870   -3.2650 hc        1 MOL      0.014915
    161 H71        -1.3100    2.1200   -1.5020 hc        1 MOL      0.065195
    162 H72        -0.6380    0.7760   -2.3830 hc        1 MOL      0.065195
    163 N14        -5.8650    1.3350   -3.6280 n         1 MOL     -0.105671
    164 C55        -7.0640    1.1750   -4.3270 c3        1 MOL     -0.298741
    165 H73        -7.4140    0.1490   -4.2190 h1        1 MOL      0.102596
    166 H74        -7.8130    1.8580   -3.9260 h1        1 MOL      0.102596
    167 H75        -6.9020    1.3940   -5.3830 h1        1 MOL      0.102596
    168 H76        -5.6910    0.7310   -2.8290 hn        1 MOL      0.202926
    169 Ca1         0.8870   -0.5720    1.5220 Ca        1 MOL      1.631463
    170 O24        -1.1860    1.2800    2.4200 oh        1 MOL     -0.855883
    171 H77        -1.8840    0.7580    2.0200 ho        1 MOL      0.417282
    172 H78        -1.3280    2.1690    2.1060 ho        1 MOL      0.417282
    173 O25         2.8060   -2.3950    2.0370 oh        1 MOL     -0.855883
    174 H79         3.4640   -2.6070    2.7020 ho        1 MOL      0.417282
    175 H80         2.5510   -3.2390    1.6730 ho        1 MOL      0.417282
    176 O26         2.1680   -0.6750   -0.7510 oh        1 MOL     -0.855883
    177 H81         1.9130   -1.3340   -1.4120 ho        1 MOL      0.417282
    178 H82         2.9330   -0.2420   -1.1250 ho        1 MOL      0.417282
    179 O27         0.8900    1.9020    0.3330 oh        1 MOL     -0.855883
    180 H83         1.7580    2.1230   -0.0050 ho        1 MOL      0.417282
    181 H84         0.3480    2.6540    0.1040 ho        1 MOL      0.417282
@<TRIPOS>BOND
     1    1    2 1   
     2    1    4 1   
     3    1    5 1   
     4    1    6 1   
     5    2    3 2   
     6    2    7 1   
     7    7    8 1   
     8    7   15 1   
     9    8    9 1   
    10    8   11 1   
    11    8   16 1   
    12    9   10 2   
    13    9   19 1   
    14   11   12 1   
    15   11   17 1   
    16   11   18 1   
    17   12   13 1   
    18   12   14 1   
    19   19   20 1   
    20   19   24 1   
    21   20   21 1   
    22   20   23 1   
    23   20   25 1   
    24   21   22 2   
    25   21   29 1   
    26   23   26 1   
    27   23   27 1   
    28   23   28 1   
    29   29   30 1   
    30   29   37 1   
    31   30   31 1   
    32   30   33 1   
    33   30   38 1   
    34   31   32 2   
    35   31   41 1   
    36   33   34 1   
    37   33   39 1   
    38   33   40 1   
    39   34   35 1   
    40   34   36 1   
    41   41   42 1   
    42   41   45 1   
    43   42   43 1   
    44   42   46 1   
    45   42   47 1   
    46   43   44 2   
    47   43   48 1   
    48   48   49 1   
    49   48   56 1   
    50   49   50 1   
    51   49   52 1   
    52   49   57 1   
    53   50   51 2   
    54   50   62 1   
    55   52   53 1   
    56   52   58 1   
    57   52   59 1   
    58   53   54 1   
    59   53   55 2   
    60   54   60 1   
    61   54   61 1   
    62   62   63 1   
    63   62   66 1   
    64   63   64 1   
    65   63   67 1   
    66   63   68 1   
    67   64   65 2   
    68   64   69 1   
    69   69   70 1   
    70   69   76 1   
    71   70   71 1   
    72   70   73 1   
    73   70   77 1   
    74   71   72 2   
    75   71   83 1   
    76   73   74 1   
    77   73   75 1   
    78   73   78 1   
    79   74   80 1   
    80   74   81 1   
    81   74   82 1   
    82   75   79 1   
    83   83   84 1   
    84   83   91 1   
    85   84   85 1   
    86   84   87 1   
    87   84   92 1   
    88   85   86 2   
    89   85  102 1   
    90   87   88 1   
    91   87   89 1   
    92   87   93 1   
    93   88   90 1   
    94   88   94 1   
    95   88   95 1   
    96   89   96 1   
    97   89   97 1   
    98   89   98 1   
    99   90   99 1   
   100   90  100 1   
   101   90  101 1   
   102  102  103 1   
   103  102  110 1   
   104  103  104 1   
   105  103  106 1   
   106  103  111 1   
   107  104  105 2   
   108  104  114 1   
   109  106  107 1   
   110  106  112 1   
   111  106  113 1   
   112  107  108 1   
   113  107  109 1   
   114  114  115 1   
   115  114  125 1   
   116  115  116 1   
   117  115  118 1   
   118  115  126 1   
   119  116  117 2   
   120  116  134 1   
   121  118  119 1   
   122  118  127 1   
   123  118  128 1   
   124  119  120 ar  
   125  119  121 ar  
   126  120  122 ar  
   127  120  129 1   
   128  121  123 ar  
   129  121  130 1   
   130  122  124 ar  
   131  122  131 1   
   132  123  124 ar  
   133  123  132 1   
   134  124  133 1   
   135  134  135 1   
   136  134  140 1   
   137  135  136 1   
   138  135  138 1   
   139  135  141 1   
   140  136  137 2   
   141  136  148 1   
   142  138  139 1   
   143  138  142 1   
   144  138  143 1   
   145  139  140 1   
   146  139  144 1   
   147  139  145 1   
   148  140  146 1   
   149  140  147 1   
   150  148  149 1   
   151  148  157 1   
   152  149  150 1   
   153  149  152 1   
   154  149  158 1   
   155  150  151 2   
   156  150  163 1   
   157  152  153 1   
   158  152  159 1   
   159  152  160 1   
   160  153  154 1   
   161  153  161 1   
   162  153  162 1   
   163  154  155 1   
   164  154  156 1   
   165  163  164 1   
   166  163  168 1   
   167  164  165 1   
   168  164  166 1   
   169  164  167 1   
   170  170  171 1   
   171  170  172 1   
   172  173  174 1   
   173  173  175 1   
   174  176  177 1   
   175  176  178 1   
   176  179  180 1   
   177  179  181 1   
@<TRIPOS>SUBSTRUCTURE
     1 MOL         1 TEMP              0 ****  ****    0 ROOT
