@<TRIPOS>MOLECULE
MOL
  179   176     1     0     0
SMALL
resp


@<TRIPOS>ATOM
      1 C1          2.3800   -5.3470    5.6630 c3        1 MOL     -0.401214
      2 C2          1.9610   -4.7060    4.3360 c         1 MOL      0.798249
      3 O1          0.8390   -4.8270    3.9140 o         1 MOL     -0.633139
      4 H1          2.0480   -4.7210    6.4900 hc        1 MOL      0.102970
      5 H2          1.9260   -6.3340    5.7490 hc        1 MOL      0.102970
      6 H3          3.4660   -5.4420    5.6940 hc        1 MOL      0.102970
      7 N1          2.9420   -4.0580    3.7270 n         1 MOL     -0.567725
      8 C3          2.8380   -3.3940    2.4840 c3        1 MOL     -0.009212
      9 C4          2.7110   -4.3700    1.2510 c         1 MOL      0.605246
     10 O2          3.6310   -5.0750    0.9550 o         1 MOL     -0.575314
     11 C5          3.9770   -2.3620    2.3510 c3        1 MOL     -0.037475
     12 C6          3.7520   -1.3720    1.2610 c         1 MOL      0.535930
     13 O3          4.1010   -0.1990    1.4000 o         1 MOL     -0.694570
     14 O4          3.1270   -1.7690    0.2680 o         1 MOL     -0.694570
     15 H4          3.8090   -3.8330    4.1810 hn        1 MOL      0.309845
     16 H5          1.9860   -2.7290    2.6180 h1        1 MOL      0.102917
     17 H6          4.9010   -2.9120    2.1800 hc        1 MOL      0.042155
     18 H7          4.0740   -1.9040    3.3330 hc        1 MOL      0.042155
     19 N2          1.6430   -4.2450    0.5640 n         1 MOL     -0.340338
     20 C7          1.5010   -5.0990   -0.7050 c3        1 MOL     -0.013983
     21 C8          2.3750   -4.7850   -1.9410 c         1 MOL      0.465529
     22 O5          2.2660   -5.4160   -3.0180 o         1 MOL     -0.547216
     23 C9          0.0620   -5.4150   -1.1330 c3        1 MOL     -0.014822
     24 C10        -0.3940   -4.2620   -1.9830 c3        1 MOL     -0.153925
     25 C11        -1.8680   -4.5340   -2.1830 c3        1 MOL     -0.046922
     26 C12        -2.3520   -5.8290   -2.9420 c3        1 MOL      0.162175
     27 N3         -3.6580   -5.8190   -3.6610 n4        1 MOL     -0.348670
     28 H8          0.9530   -3.5960    0.9200 hn        1 MOL      0.176142
     29 H9          1.8290   -6.0810   -0.3460 h1        1 MOL      0.098701
     30 H10        -0.4860   -5.5510   -0.1950 hc        1 MOL      0.030507
     31 H11         0.0980   -6.3200   -1.7460 hc        1 MOL      0.030507
     32 H12         0.0470   -4.1850   -2.9770 hc        1 MOL      0.098657
     33 H13        -0.1870   -3.4000   -1.3520 hc        1 MOL      0.098657
     34 H14        -2.2280   -3.6390   -2.6910 hc        1 MOL      0.038833
     35 H15        -2.4450   -4.7050   -1.2720 hc        1 MOL      0.038833
     36 H16        -2.3270   -6.6500   -2.2280 hx        1 MOL      0.040374
     37 H17        -1.5820   -6.1160   -3.6630 hx        1 MOL      0.040374
     38 H18        -4.4310   -5.9140   -3.0180 hn        1 MOL      0.270768
     39 H19        -3.8170   -5.0560   -4.3110 hn        1 MOL      0.270768
     40 H20        -3.7160   -6.6160   -4.2650 hn        1 MOL      0.270768
     41 N4          3.3000   -3.8600   -1.7550 n         1 MOL     -0.297390
     42 C13         4.3590   -3.5780   -2.7790 c3        1 MOL      0.044776
     43 C14         5.6650   -3.1020   -2.1590 c         1 MOL      0.366450
     44 O6          6.6560   -3.0410   -2.9100 o         1 MOL     -0.534099
     45 C15         3.8350   -2.5730   -3.7620 c3        1 MOL     -0.364418
     46 C16         3.3380   -1.3080   -3.1460 c         1 MOL      0.832514
     47 O7          4.1650   -0.6060   -2.5250 o         1 MOL     -0.769956
     48 O8          2.1280   -0.9770   -3.1790 o         1 MOL     -0.769956
     49 H21         3.1650   -3.3810   -0.8740 hn        1 MOL      0.129068
     50 H22         4.6370   -4.5030   -3.2800 h1        1 MOL      0.142574
     51 H23         2.9400   -2.9560   -4.2510 hc        1 MOL      0.108931
     52 H24         4.6600   -2.2250   -4.3900 hc        1 MOL      0.108931
     53 N5          5.8580   -2.8640   -0.8520 n         1 MOL      0.012344
     54 C17         7.1060   -2.6430   -0.2240 c3        1 MOL     -0.387110
     55 C18         7.4940   -1.1460   -0.1070 c         1 MOL      0.486752
     56 O9          8.5280   -0.7960    0.5300 o         1 MOL     -0.514123
     57 H25         5.0910   -3.1100   -0.2360 hn        1 MOL      0.156906
     58 H26         7.9020   -3.1140   -0.8130 h1        1 MOL      0.159399
     59 H27         6.9910   -2.9770    0.8060 h1        1 MOL      0.159399
     60 N6          6.6370   -0.1720   -0.5610 n         1 MOL     -0.145944
     61 C19         6.9430    1.2650   -0.5330 c3        1 MOL     -0.119718
     62 C20         5.7580    2.2830   -0.4720 c         1 MOL      0.748551
     63 O10         4.5650    1.8590   -0.6340 o         1 MOL     -0.594581
     64 C21         7.9610    1.6920   -1.7170 c3        1 MOL     -0.323062
     65 C22         9.3180    1.0180   -1.6830 c         1 MOL      0.750549
     66 N7          9.6140    0.1140   -2.6010 n         1 MOL     -0.854441
     67 O11        10.1410    1.4770   -0.9210 o         1 MOL     -0.554274
     68 H28         5.8960   -0.5790   -1.1180 hn        1 MOL      0.232568
     69 H29         7.6470    1.4370    0.2820 h1        1 MOL      0.084141
     70 H30         8.0580    2.7630   -1.5330 hc        1 MOL      0.068191
     71 H31         7.5410    1.6810   -2.7310 hc        1 MOL      0.068191
     72 H32         8.9460   -0.1050   -3.3340 hn        1 MOL      0.388886
     73 H33        10.4370   -0.4620   -2.5020 hn        1 MOL      0.388886
     74 N8          6.0760    3.4790    0.0100 n         1 MOL     -0.532683
     75 C23         5.1210    4.6650   -0.1110 c3        1 MOL     -0.121264
     76 C24         3.9430    4.6440    0.8130 c         1 MOL      0.652685
     77 O12         4.0670    4.2450    1.9830 o         1 MOL     -0.497929
     78 H34         7.0160    3.6630    0.3360 hn        1 MOL      0.373495
     79 H35         4.8000    4.6520   -1.1560 h1        1 MOL      0.097727
     80 H36         5.7130    5.5500    0.1160 h1        1 MOL      0.097727
     81 N9          2.7960    5.1310    0.3490 n         1 MOL     -0.518811
     82 C25         1.5340    4.7900    1.0270 c3        1 MOL     -0.125697
     83 C26         1.2010    3.3200    1.3290 c         1 MOL      0.558964
     84 O13         1.6060    2.4880    0.5020 o         1 MOL     -0.492570
     85 C27         0.3660    5.3820    0.1610 c3        1 MOL     -0.097212
     86 C28         0.3430    6.8530   -0.2890 ca        1 MOL      0.173636
     87 C29         0.6660    7.8570    0.6550 ca        1 MOL     -0.231219
     88 C30        -0.1050    7.1640   -1.5720 ca        1 MOL     -0.231219
     89 C31         0.4910    9.2070    0.2590 ca        1 MOL     -0.154444
     90 C32        -0.0870    8.4670   -1.9730 ca        1 MOL     -0.154444
     91 C33         0.2060    9.4960   -1.0830 ca        1 MOL      0.218226
     92 O14        -0.0070   10.7900   -1.4160 oh        1 MOL     -0.439471
     93 H37         2.8090    5.7410   -0.4500 hn        1 MOL      0.286558
     94 H38         1.5370    5.2160    2.0330 h1        1 MOL      0.104988
     95 H39        -0.5580    5.2690    0.7140 hc        1 MOL      0.052377
     96 H40         0.3390    4.7240   -0.7070 hc        1 MOL      0.052377
     97 H41         0.9620    7.6690    1.6700 ha        1 MOL      0.148386
     98 H42        -0.3370    6.3890   -2.2910 ha        1 MOL      0.148386
     99 H43         0.7900    9.9630    0.9680 ha        1 MOL      0.133755
    100 H44        -0.1710    8.6880   -3.0240 ha        1 MOL      0.133755
    101 H45         0.3030   11.3810   -0.7180 ho        1 MOL      0.355209
    102 N10         0.4950    2.9470    2.4120 n         1 MOL     -0.551835
    103 C34         0.2530    1.5740    2.9420 c3        1 MOL      0.067469
    104 C35        -0.1230    0.4430    1.9330 c         1 MOL      0.505663
    105 O15         0.7180   -0.1060    1.2490 o         1 MOL     -0.579722
    106 C36         1.4280    1.0990    3.8220 c3        1 MOL      0.238670
    107 C37         1.0900   -0.2230    4.4600 c3        1 MOL      0.001258
    108 C38         1.6800    2.3110    4.7860 c3        1 MOL     -0.173910
    109 C39         2.0750   -0.6690    5.5650 c3        1 MOL     -0.070745
    110 H46         0.2000    3.7090    3.0060 hn        1 MOL      0.338168
    111 H47        -0.5840    1.6720    3.6220 h1        1 MOL      0.038866
    112 H48         2.3490    0.9500    3.2570 hc        1 MOL      0.059344
    113 H49         1.1760   -1.0130    3.7140 hc        1 MOL     -0.037767
    114 H50         0.0850   -0.1880    4.8880 hc        1 MOL     -0.037767
    115 H51         2.4820    1.9980    5.4480 hc        1 MOL      0.033775
    116 H52         1.9030    3.2610    4.2960 hc        1 MOL      0.033775
    117 H53         0.7390    2.4870    5.3250 hc        1 MOL      0.033775
    118 H54         3.1140   -0.5850    5.2400 hc        1 MOL      0.022279
    119 H55         2.0150   -0.1160    6.5010 hc        1 MOL      0.022279
    120 H56         1.9640   -1.7290    5.7690 hc        1 MOL      0.022279
    121 N11        -1.3310   -0.0400    1.9880 n         1 MOL     -0.534709
    122 C40        -1.7560   -1.2880    1.1880 c3        1 MOL      0.015073
    123 C41        -3.1500   -1.1620    0.6050 c         1 MOL      0.506496
    124 O16        -3.6200   -2.1150   -0.0770 o         1 MOL     -0.582736
    125 C42        -1.6930   -2.5780    1.9560 c3        1 MOL      0.152265
    126 O17        -0.3900   -3.0630    2.1710 oh        1 MOL     -0.409339
    127 H57        -1.9690    0.4460    2.6130 hn        1 MOL      0.323396
    128 H58        -1.1660   -1.2740    0.2710 h1        1 MOL      0.154672
    129 H59        -2.3150   -3.3640    1.5380 h1        1 MOL      0.039570
    130 H60        -2.0970   -2.3460    2.9510 h1        1 MOL      0.039570
    131 H61        -0.2990   -3.5750    2.9750 ho        1 MOL      0.355261
    132 N12        -3.8220   -0.0410    0.8170 n         1 MOL     -0.440959
    133 C43        -5.1200    0.2290    0.3060 c3        1 MOL      0.120826
    134 C44        -5.0610    1.1180   -0.9780 c         1 MOL      0.613904
    135 O18        -4.2370    1.9610   -1.2160 o         1 MOL     -0.573457
    136 C45        -5.9940    0.7830    1.4150 c3        1 MOL     -0.229216
    137 H62        -3.2900    0.6370    1.3450 hn        1 MOL      0.243375
    138 H63        -5.6190   -0.6590   -0.0910 h1        1 MOL      0.098152
    139 H64        -6.9720    1.0800    1.0520 hc        1 MOL      0.081215
    140 H65        -6.0380    0.0770    2.2400 hc        1 MOL      0.081215
    141 H66        -5.4520    1.5970    1.8920 hc        1 MOL      0.081215
    142 N13        -6.1380    1.1140   -1.8760 n         1 MOL     -0.683900
    143 C46        -7.3370    0.2090   -1.7960 c3        1 MOL      0.397585
    144 C47        -8.5490    0.9840   -2.3560 c         1 MOL      0.454072
    145 O19        -8.2930    1.8200   -3.2600 o         1 MOL     -0.542131
    146 C48        -6.9010   -1.0880   -2.5150 c3        1 MOL     -0.258674
    147 H67        -5.9620    1.7890   -2.6040 hn        1 MOL      0.360876
    148 H68        -7.4980   -0.1510   -0.7780 h1        1 MOL     -0.022712
    149 H69        -6.9660   -1.0140   -3.6060 hc        1 MOL      0.061262
    150 H70        -5.9460   -1.4630   -2.1560 hc        1 MOL      0.061262
    151 H71        -7.6530   -1.8460   -2.3080 hc        1 MOL      0.061262
    152 N14        -9.7210    0.7840   -1.8500 n         1 MOL     -0.464044
    153 C49       -10.1080    0.0760   -0.6740 c3        1 MOL     -0.025139
    154 C50        -9.6080    0.7230    0.6520 c         1 MOL      0.403716
    155 O20        -9.0750    0.0240    1.5470 o         1 MOL     -0.501875
    156 C51       -11.6280   -0.2430   -0.6410 c3        1 MOL      0.260940
    157 C52       -11.9260   -1.5320    0.1080 c3        1 MOL     -0.371399
    158 C53       -13.4960   -1.8370    0.3290 c         1 MOL      0.713602
    159 O21       -14.2420   -1.0320    0.9120 o         1 MOL     -0.651029
    160 O22       -14.0440   -2.8410   -0.1690 o         1 MOL     -0.651029
    161 H72       -10.4620    1.2700   -2.3360 hn        1 MOL      0.300455
    162 H73        -9.5400   -0.8480   -0.5630 h1        1 MOL      0.065049
    163 H74       -12.0450   -0.3260   -1.6450 hc        1 MOL     -0.028081
    164 H75       -12.1250    0.6000   -0.1570 hc        1 MOL     -0.028081
    165 H76       -11.4850   -1.5660    1.1010 hc        1 MOL      0.068499
    166 H77       -11.4820   -2.4020   -0.3810 hc        1 MOL      0.068499
    167 N15        -9.7810    2.0670    0.8910 n         1 MOL     -0.192763
    168 C54        -9.1330    2.8110    1.9290 c3        1 MOL     -0.310368
    169 H78        -9.7880    3.6150    2.2640 h1        1 MOL      0.125834
    170 H79        -8.9140    2.1500    2.7670 h1        1 MOL      0.125834
    171 H80        -8.2040    3.2340    1.5480 h1        1 MOL      0.125834
    172 H81       -10.3650    2.5090    0.2010 hn        1 MOL      0.237935
    173 Ca1         2.3290    0.4140   -0.8190 Ca        1 MOL      1.765346
    174 O23         2.4430    2.2030   -2.5760 oh        1 MOL     -0.854207
    175 H82         1.7010    2.6480   -2.9870 ho        1 MOL      0.420501
    176 H83         3.2110    2.5150   -3.0690 ho        1 MOL      0.420501
    177 O24        -0.2200    0.6160   -1.7210 oh        1 MOL     -0.854207
    178 H84        -0.8810   -0.0040   -2.0260 ho        1 MOL      0.420501
    179 H85        -0.6470    1.4710   -1.7950 ho        1 MOL      0.420501
@<TRIPOS>BOND
     1    1    2 1   
     2    1    4 1   
     3    1    5 1   
     4    1    6 1   
     5    2    3 2   
     6    2    7 1   
     7    7    8 1   
     8    7   15 1   
     9    8    9 1   
    10    8   11 1   
    11    8   16 1   
    12    9   10 2   
    13    9   19 1   
    14   11   12 1   
    15   11   17 1   
    16   11   18 1   
    17   12   13 1   
    18   12   14 1   
    19   19   20 1   
    20   19   28 1   
    21   20   21 1   
    22   20   23 1   
    23   20   29 1   
    24   21   22 2   
    25   21   41 1   
    26   23   24 1   
    27   23   30 1   
    28   23   31 1   
    29   24   25 1   
    30   24   32 1   
    31   24   33 1   
    32   25   26 1   
    33   25   34 1   
    34   25   35 1   
    35   26   27 1   
    36   26   36 1   
    37   26   37 1   
    38   27   38 1   
    39   27   39 1   
    40   27   40 1   
    41   41   42 1   
    42   41   49 1   
    43   42   43 1   
    44   42   45 1   
    45   42   50 1   
    46   43   44 2   
    47   43   53 1   
    48   45   46 1   
    49   45   51 1   
    50   45   52 1   
    51   46   47 1   
    52   46   48 1   
    53   53   54 1   
    54   53   57 1   
    55   54   55 1   
    56   54   58 1   
    57   54   59 1   
    58   55   56 2   
    59   55   60 1   
    60   60   61 1   
    61   60   68 1   
    62   61   62 1   
    63   61   64 1   
    64   61   69 1   
    65   62   63 2   
    66   62   74 1   
    67   64   65 1   
    68   64   70 1   
    69   64   71 1   
    70   65   66 1   
    71   65   67 2   
    72   66   72 1   
    73   66   73 1   
    74   74   75 1   
    75   74   78 1   
    76   75   76 1   
    77   75   79 1   
    78   75   80 1   
    79   76   77 2   
    80   76   81 1   
    81   81   82 1   
    82   81   93 1   
    83   82   83 1   
    84   82   85 1   
    85   82   94 1   
    86   83   84 2   
    87   83  102 1   
    88   85   86 1   
    89   85   95 1   
    90   85   96 1   
    91   86   87 ar  
    92   86   88 ar  
    93   87   89 ar  
    94   87   97 1   
    95   88   90 ar  
    96   88   98 1   
    97   89   91 ar  
    98   89   99 1   
    99   90   91 ar  
   100   90  100 1   
   101   91   92 1   
   102   92  101 1   
   103  102  103 1   
   104  102  110 1   
   105  103  104 1   
   106  103  106 1   
   107  103  111 1   
   108  104  105 2   
   109  104  121 1   
   110  106  107 1   
   111  106  108 1   
   112  106  112 1   
   113  107  109 1   
   114  107  113 1   
   115  107  114 1   
   116  108  115 1   
   117  108  116 1   
   118  108  117 1   
   119  109  118 1   
   120  109  119 1   
   121  109  120 1   
   122  121  122 1   
   123  121  127 1   
   124  122  123 1   
   125  122  125 1   
   126  122  128 1   
   127  123  124 2   
   128  123  132 1   
   129  125  126 1   
   130  125  129 1   
   131  125  130 1   
   132  126  131 1   
   133  132  133 1   
   134  132  137 1   
   135  133  134 1   
   136  133  136 1   
   137  133  138 1   
   138  134  135 2   
   139  134  142 1   
   140  136  139 1   
   141  136  140 1   
   142  136  141 1   
   143  142  143 1   
   144  142  147 1   
   145  143  144 1   
   146  143  146 1   
   147  143  148 1   
   148  144  145 2   
   149  144  152 1   
   150  146  149 1   
   151  146  150 1   
   152  146  151 1   
   153  152  153 1   
   154  152  161 1   
   155  153  154 1   
   156  153  156 1   
   157  153  162 1   
   158  154  155 2   
   159  154  167 1   
   160  156  157 1   
   161  156  163 1   
   162  156  164 1   
   163  157  158 1   
   164  157  165 1   
   165  157  166 1   
   166  158  159 1   
   167  158  160 1   
   168  167  168 1   
   169  167  172 1   
   170  168  169 1   
   171  168  170 1   
   172  168  171 1   
   173  174  175 1   
   174  174  176 1   
   175  177  178 1   
   176  177  179 1   
@<TRIPOS>SUBSTRUCTURE
     1 MOL         1 TEMP              0 ****  ****    0 ROOT
