@<TRIPOS>MOLECULE
MOL
  185   180     1     0     0
SMALL
resp


@<TRIPOS>ATOM
      1 C1         -5.9010    0.3550   -4.4390 c3        1 MOL     -0.443054
      2 C2         -6.7720    0.6140   -3.2390 c         1 MOL      0.761640
      3 O1         -6.2300    0.5850   -2.1290 o         1 MOL     -0.519848
      4 H1         -6.5270    0.2490   -5.3250 hc        1 MOL      0.114260
      5 H2         -5.2140    1.1900   -4.5770 hc        1 MOL      0.114260
      6 H3         -5.3330   -0.5620   -4.2850 hc        1 MOL      0.114260
      7 N1         -8.1260    0.6060   -3.3690 n         1 MOL     -0.733510
      8 C3         -9.1900    0.9690   -2.3820 c3        1 MOL      0.227690
      9 C4         -8.8760    0.3260   -1.0000 c         1 MOL      0.260550
     10 O2         -9.1510    0.9490   -0.0020 o         1 MOL     -0.440298
     11 C5         -9.4800    2.4820   -2.2760 c3        1 MOL     -0.166454
     12 C6         -8.2360    3.3030   -1.8340 c         1 MOL      0.706372
     13 O3         -7.8340    3.2740   -0.6260 o         1 MOL     -0.653394
     14 O4         -7.6600    3.9030   -2.7340 o         1 MOL     -0.653394
     15 H4         -8.4330    0.5930   -4.3290 hn        1 MOL      0.354072
     16 H5        -10.1540    0.4930   -2.5690 h1        1 MOL      0.018828
     17 H6        -10.1660    2.6540   -1.4360 hc        1 MOL      0.026756
     18 H7         -9.9340    2.8920   -3.1770 hc        1 MOL      0.026756
     19 N2         -8.2140   -0.8320   -1.0120 n         1 MOL     -0.170406
     20 C7         -7.9920   -1.6540    0.2450 c3        1 MOL      0.234404
     21 C8         -6.5810   -2.2410    0.3880 c         1 MOL      0.440234
     22 O5         -6.3840   -3.5110    0.2360 o         1 MOL     -0.555006
     23 C9         -9.1230   -2.6670    0.4000 c3        1 MOL     -0.198930
     24 C10       -10.5320   -2.0200    0.1880 c3        1 MOL      0.069775
     25 C11       -11.7310   -3.0500    0.2000 c3        1 MOL     -0.066957
     26 C12       -11.7930   -3.8140    1.5460 c3        1 MOL      0.185267
     27 N3        -12.9400   -4.8090    1.6040 n4        1 MOL     -0.432642
     28 H8         -7.8830   -1.1250   -1.9140 hn        1 MOL      0.172093
     29 H9         -8.0300   -1.0640    1.1570 h1        1 MOL      0.013907
     30 H10        -9.0790   -3.0790    1.4130 hc        1 MOL      0.038811
     31 H11        -8.9860   -3.5070   -0.2750 hc        1 MOL      0.038811
     32 H12       -10.5240   -1.6370   -0.8370 hc        1 MOL      0.015051
     33 H13       -10.7200   -1.2420    0.9210 hc        1 MOL      0.015051
     34 H14       -11.5960   -3.7950   -0.5950 hc        1 MOL      0.026128
     35 H15       -12.6900   -2.5560    0.0720 hc        1 MOL      0.026128
     36 H16       -11.9580   -3.1310    2.3740 hx        1 MOL      0.048811
     37 H17       -10.8500   -4.3080    1.7600 hx        1 MOL      0.048811
     38 H18       -12.9460   -5.4410    0.8040 hn        1 MOL      0.320550
     39 H19       -12.9160   -5.3280    2.4620 hn        1 MOL      0.320550
     40 H20       -13.8120   -4.3070    1.6550 hn        1 MOL      0.320550
     41 N4         -5.5590   -1.3340    0.5390 n         1 MOL     -0.358828
     42 C13        -4.0940   -1.5910    0.6020 c3        1 MOL     -0.098206
     43 C14        -3.6190   -1.7220    2.0950 c         1 MOL      0.501983
     44 O6         -3.7130   -0.8000    2.8290 o         1 MOL     -0.492380
     45 C15        -3.3150   -0.3790   -0.0540 c3        1 MOL      0.012781
     46 C16        -1.8330   -0.7110   -0.1640 c         1 MOL      0.507607
     47 O7         -1.0890   -0.3570    0.7400 o         1 MOL     -0.703814
     48 O8         -1.3440   -1.3810   -1.1140 o         1 MOL     -0.703814
     49 H21        -5.8690   -0.4330    0.8630 hn        1 MOL      0.289549
     50 H22        -3.8950   -2.4630   -0.0080 h1        1 MOL      0.135533
     51 H23        -3.5460    0.5230    0.5180 hc        1 MOL      0.065797
     52 H24        -3.7310   -0.1840   -1.0400 hc        1 MOL      0.065797
     53 N5         -2.9230   -2.8070    2.4940 n         1 MOL     -0.341541
     54 C17        -2.6880   -3.1990    3.8230 c3        1 MOL     -0.106234
     55 C18        -1.6020   -2.2700    4.4530 c         1 MOL      0.502806
     56 O9         -1.3190   -2.4560    5.6200 o         1 MOL     -0.538401
     57 H25        -2.5170   -3.3310    1.7290 hn        1 MOL      0.222405
     58 H26        -2.3030   -4.2080    4.0340 h1        1 MOL      0.102137
     59 H27        -3.6390   -3.2390    4.3640 h1        1 MOL      0.102137
     60 N6         -0.9860   -1.3160    3.6800 n         1 MOL     -0.501120
     61 C19        -0.1200   -0.2690    4.3370 c3        1 MOL      0.191883
     62 C20        -0.3370    1.0700    3.6550 c         1 MOL      0.493741
     63 O10         0.5460    1.9090    3.6860 o         1 MOL     -0.495470
     64 C21         1.3650   -0.7450    4.3310 c3        1 MOL     -0.412555
     65 C22         2.1450   -0.4980    3.0430 c         1 MOL      0.891312
     66 N7          3.2560    0.2540    3.0750 n         1 MOL     -0.899728
     67 O11         1.7810   -1.0180    2.0320 o         1 MOL     -0.675091
     68 H28        -1.2230   -1.2770    2.6980 hn        1 MOL      0.413944
     69 H29        -0.3980   -0.1300    5.3820 h1        1 MOL      0.095185
     70 H30         1.4300   -1.8260    4.4420 hc        1 MOL      0.106656
     71 H31         1.7670   -0.0730    5.0900 hc        1 MOL      0.106656
     72 H32         3.4240    0.8210    3.8940 hn        1 MOL      0.365692
     73 H33         3.8120    0.3670    2.2380 hn        1 MOL      0.365692
     74 N8         -1.6090    1.3120    3.1970 n         1 MOL     -0.465589
     75 C23        -1.9610    2.6600    2.9280 c3        1 MOL     -0.064049
     76 C24        -1.1680    3.2980    1.8700 c         1 MOL      0.500796
     77 O12        -0.9800    4.4660    1.9140 o         1 MOL     -0.563378
     78 H34        -2.3360    0.6200    3.1240 hn        1 MOL      0.274929
     79 H35        -1.9890    3.3910    3.7320 h1        1 MOL      0.100129
     80 H36        -3.0010    2.6120    2.5860 h1        1 MOL      0.100129
     81 N9         -0.6510    2.5840    0.8910 n         1 MOL     -0.295960
     82 C25         0.2640    3.0910   -0.1880 c3        1 MOL      0.073517
     83 C26         1.6340    2.3560   -0.1940 c         1 MOL      0.652565
     84 O13         1.6090    1.1340   -0.0700 o         1 MOL     -0.537219
     85 C27        -0.5010    3.0190   -1.4920 c3        1 MOL     -0.073687
     86 C28        -1.8760    3.7180   -1.4390 ca        1 MOL     -0.001537
     87 C29        -2.0510    5.0760   -1.3350 ca        1 MOL     -0.182447
     88 C30        -2.9910    2.9620   -1.7160 ca        1 MOL     -0.182447
     89 C31        -3.3720    5.6190   -1.0900 ca        1 MOL     -0.243134
     90 C32        -4.3030    3.4250   -1.6000 ca        1 MOL     -0.243134
     91 C33        -4.4970    4.7460   -1.1630 ca        1 MOL      0.421944
     92 O14        -5.7670    5.1370   -0.9750 oh        1 MOL     -0.559690
     93 H37        -0.7800    1.5910    0.9240 hn        1 MOL      0.204052
     94 H38         0.5450    4.1380   -0.0530 h1        1 MOL      0.049769
     95 H39        -0.6380    1.9570   -1.7060 hc        1 MOL      0.041818
     96 H40         0.1370    3.2980   -2.3320 hc        1 MOL      0.041818
     97 H41        -1.1740    5.6990   -1.3400 ha        1 MOL      0.112270
     98 H42        -2.8750    1.8930   -1.8550 ha        1 MOL      0.112270
     99 H43        -3.5000    6.6420   -0.7870 ha        1 MOL      0.138494
    100 H44        -5.1340    2.7450   -1.7150 ha        1 MOL      0.138494
    101 H45        -6.3720    4.3870   -1.0150 ho        1 MOL      0.406205
    102 N10         2.7790    3.0500   -0.4060 n         1 MOL     -0.711516
    103 C34         3.9540    2.3330   -0.8280 c3        1 MOL      0.095260
    104 C35         4.8260    2.1330    0.4460 c         1 MOL      0.618555
    105 O15         5.2800    1.0380    0.7230 o         1 MOL     -0.382022
    106 C36         4.6100    3.1030   -1.9550 c3        1 MOL      0.271252
    107 C37         3.6950    3.5230   -3.1580 c3        1 MOL     -0.055609
    108 C38         5.8950    2.4150   -2.4880 c3        1 MOL     -0.310814
    109 C39         2.8190    2.5040   -3.7720 c3        1 MOL     -0.168337
    110 H46         2.7380    4.0590   -0.4780 hn        1 MOL      0.344687
    111 H47         3.6610    1.3340   -1.1270 h1        1 MOL     -0.075036
    112 H48         5.0120    4.0560   -1.6210 hc        1 MOL     -0.094656
    113 H49         4.3970    3.9110   -3.8920 hc        1 MOL      0.029141
    114 H50         3.1180    4.3830   -2.8390 hc        1 MOL      0.029141
    115 H51         6.1420    2.6900   -3.5100 hc        1 MOL      0.077419
    116 H52         6.8410    2.6790   -2.0050 hc        1 MOL      0.077419
    117 H53         5.6740    1.3460   -2.5280 hc        1 MOL      0.077419
    118 H54         3.3740    1.5880   -3.9510 hc        1 MOL      0.054628
    119 H55         2.0280    2.2860   -3.0510 hc        1 MOL      0.054628
    120 H56         2.4260    2.9070   -4.7110 hc        1 MOL      0.054628
    121 N11         5.1760    3.2360    1.0950 n         1 MOL     -0.412177
    122 C40         6.1600    3.1160    2.1670 c3        1 MOL     -0.105443
    123 C41         7.4420    2.3160    1.7940 c         1 MOL      0.257410
    124 O16         8.0840    1.7500    2.7030 o         1 MOL     -0.423626
    125 C42         6.5380    4.5370    2.4960 c3        1 MOL      0.308406
    126 O17         5.3970    5.2030    3.1060 oh        1 MOL     -0.573945
    127 H57         4.7050    4.1240    1.0090 hn        1 MOL      0.261521
    128 H58         5.6760    2.5420    2.9480 h1        1 MOL      0.160867
    129 H59         6.8880    5.1520    1.6600 h1        1 MOL      0.025133
    130 H60         7.3430    4.6600    3.2130 h1        1 MOL      0.025133
    131 H61         4.9290    5.5430    2.3310 ho        1 MOL      0.365450
    132 N12         7.8870    2.3610    0.5210 n         1 MOL     -0.298879
    133 C43         9.0460    1.6650   -0.0220 c3        1 MOL      0.249786
    134 C44         9.0410    0.1320    0.3610 c         1 MOL      0.455279
    135 O18        10.1060   -0.5170    0.6350 o         1 MOL     -0.525963
    136 C45        10.2150    2.5410    0.3280 c3        1 MOL     -0.283799
    137 H62         7.4520    3.0120   -0.1250 hn        1 MOL      0.209601
    138 H63         8.9620    1.6240   -1.1120 h1        1 MOL      0.012814
    139 H64        11.1370    2.0150    0.0410 hc        1 MOL      0.079473
    140 H65        10.2170    3.4770   -0.2340 hc        1 MOL      0.079473
    141 H66        10.2070    2.6790    1.4070 hc        1 MOL      0.079473
    142 N13         7.8580   -0.4660    0.3300 n         1 MOL     -0.387433
    143 C46         7.6820   -1.9070    0.5030 c3        1 MOL      0.378211
    144 C47         7.0200   -2.6190   -0.7850 c         1 MOL      0.288506
    145 O19         6.2310   -1.9800   -1.5460 o         1 MOL     -0.415751
    146 C48         6.8000   -2.0560    1.7510 c3        1 MOL     -0.295777
    147 H67         7.0170    0.0900    0.2450 hn        1 MOL      0.065199
    148 H68         8.6750   -2.3460    0.6140 h1        1 MOL     -0.014651
    149 H69         6.5630   -3.0770    2.0140 hc        1 MOL      0.104265
    150 H70         7.2780   -1.6660    2.6560 hc        1 MOL      0.104265
    151 H71         5.8730   -1.5200    1.5400 hc        1 MOL      0.104265
    152 N14         7.1060   -3.9710   -0.8860 n         1 MOL     -0.360261
    153 C49         6.5340   -4.8450   -1.9640 c3        1 MOL     -0.136446
    154 C50         7.0690   -4.4410   -3.3810 c         1 MOL      0.437207
    155 O20         6.4870   -4.7740   -4.4390 o         1 MOL     -0.496787
    156 C51         4.9590   -4.7880   -1.9770 c3        1 MOL      0.228421
    157 C52         4.3490   -5.1120   -0.5570 c3        1 MOL     -0.113462
    158 C53         2.9300   -4.4880   -0.3070 c         1 MOL      0.741972
    159 O21         1.8440   -5.1500   -0.2920 o         1 MOL     -0.738873
    160 O22         2.8850   -3.2700   -0.0410 o         1 MOL     -0.738873
    161 H72         7.6410   -4.5310   -0.2410 hn        1 MOL      0.273806
    162 H73         6.9790   -5.8290   -1.7940 h1        1 MOL      0.116217
    163 H74         4.5310   -5.4540   -2.7280 hc        1 MOL     -0.032798
    164 H75         4.5470   -3.8100   -2.2470 hc        1 MOL     -0.032798
    165 H76         4.9730   -4.7780    0.2750 hc        1 MOL      0.000487
    166 H77         4.2880   -6.2070   -0.5580 hc        1 MOL      0.000487
    167 N15         8.1960   -3.7230   -3.3530 n         1 MOL     -0.289548
    168 C54         8.9050   -3.1640   -4.5250 c3        1 MOL     -0.072024
    169 H78         8.6680   -3.7580   -5.4080 h1        1 MOL      0.071670
    170 H79         8.5880   -2.1340   -4.6850 h1        1 MOL      0.071670
    171 H80         9.9800   -3.1900   -4.3470 h1        1 MOL      0.071670
    172 H81         8.5720   -3.5190   -2.4460 hn        1 MOL      0.230988
    173 Ca1         1.2130   -1.4370   -0.6630 Ca        1 MOL      1.827533
    174 O23         3.6610   -1.0340   -1.9520 oh        1 MOL     -0.865759
    175 H82         3.7350   -0.6530   -2.8270 ho        1 MOL      0.417998
    176 H83         4.4510   -1.5620   -1.8550 ho        1 MOL      0.417998
    177 O24         0.6690   -3.5640   -2.1650 oh        1 MOL     -0.865759
    178 H84         0.0420   -3.9750   -2.7690 ho        1 MOL      0.417998
    179 H85         0.9550   -4.2750   -1.5890 ho        1 MOL      0.417998
    180 O25         1.1240   -0.1080   -3.1430 oh        1 MOL     -0.865759
    181 H86         1.5980   -0.5840   -3.8240 ho        1 MOL      0.417998
    182 H87         0.6280    0.5620   -3.6260 ho        1 MOL      0.417998
    183 O26        -0.0410   -3.4140    0.9230 oh        1 MOL     -0.865759
    184 H88        -0.1250   -3.5570    1.8650 ho        1 MOL      0.417998
    185 H89         0.4580   -4.1630    0.6060 ho        1 MOL      0.417998
@<TRIPOS>BOND
     1    1    2 1   
     2    1    4 1   
     3    1    5 1   
     4    1    6 1   
     5    2    3 2   
     6    2    7 1   
     7    7    8 1   
     8    7   15 1   
     9    8    9 1   
    10    8   11 1   
    11    8   16 1   
    12    9   10 2   
    13    9   19 1   
    14   11   12 1   
    15   11   17 1   
    16   11   18 1   
    17   12   13 1   
    18   12   14 1   
    19   19   20 1   
    20   19   28 1   
    21   20   21 1   
    22   20   23 1   
    23   20   29 1   
    24   21   22 2   
    25   21   41 1   
    26   23   24 1   
    27   23   30 1   
    28   23   31 1   
    29   24   25 1   
    30   24   32 1   
    31   24   33 1   
    32   25   26 1   
    33   25   34 1   
    34   25   35 1   
    35   26   27 1   
    36   26   36 1   
    37   26   37 1   
    38   27   38 1   
    39   27   39 1   
    40   27   40 1   
    41   41   42 1   
    42   41   49 1   
    43   42   43 1   
    44   42   45 1   
    45   42   50 1   
    46   43   44 2   
    47   43   53 1   
    48   45   46 1   
    49   45   51 1   
    50   45   52 1   
    51   46   47 1   
    52   46   48 1   
    53   53   54 1   
    54   53   57 1   
    55   54   55 1   
    56   54   58 1   
    57   54   59 1   
    58   55   56 2   
    59   55   60 1   
    60   60   61 1   
    61   60   68 1   
    62   61   62 1   
    63   61   64 1   
    64   61   69 1   
    65   62   63 2   
    66   62   74 1   
    67   64   65 1   
    68   64   70 1   
    69   64   71 1   
    70   65   66 1   
    71   65   67 2   
    72   66   72 1   
    73   66   73 1   
    74   74   75 1   
    75   74   78 1   
    76   75   76 1   
    77   75   79 1   
    78   75   80 1   
    79   76   77 2   
    80   76   81 1   
    81   81   82 1   
    82   81   93 1   
    83   82   83 1   
    84   82   85 1   
    85   82   94 1   
    86   83   84 2   
    87   83  102 1   
    88   85   86 1   
    89   85   95 1   
    90   85   96 1   
    91   86   87 ar  
    92   86   88 ar  
    93   87   89 ar  
    94   87   97 1   
    95   88   90 ar  
    96   88   98 1   
    97   89   91 ar  
    98   89   99 1   
    99   90   91 ar  
   100   90  100 1   
   101   91   92 1   
   102   92  101 1   
   103  102  103 1   
   104  102  110 1   
   105  103  104 1   
   106  103  106 1   
   107  103  111 1   
   108  104  105 2   
   109  104  121 1   
   110  106  107 1   
   111  106  108 1   
   112  106  112 1   
   113  107  109 1   
   114  107  113 1   
   115  107  114 1   
   116  108  115 1   
   117  108  116 1   
   118  108  117 1   
   119  109  118 1   
   120  109  119 1   
   121  109  120 1   
   122  121  122 1   
   123  121  127 1   
   124  122  123 1   
   125  122  125 1   
   126  122  128 1   
   127  123  124 2   
   128  123  132 1   
   129  125  126 1   
   130  125  129 1   
   131  125  130 1   
   132  126  131 1   
   133  132  133 1   
   134  132  137 1   
   135  133  134 1   
   136  133  136 1   
   137  133  138 1   
   138  134  135 2   
   139  134  142 1   
   140  136  139 1   
   141  136  140 1   
   142  136  141 1   
   143  142  143 1   
   144  142  147 1   
   145  143  144 1   
   146  143  146 1   
   147  143  148 1   
   148  144  145 2   
   149  144  152 1   
   150  146  149 1   
   151  146  150 1   
   152  146  151 1   
   153  152  153 1   
   154  152  161 1   
   155  153  154 1   
   156  153  156 1   
   157  153  162 1   
   158  154  155 2   
   159  154  167 1   
   160  156  157 1   
   161  156  163 1   
   162  156  164 1   
   163  157  158 1   
   164  157  165 1   
   165  157  166 1   
   166  158  159 1   
   167  158  160 1   
   168  167  168 1   
   169  167  172 1   
   170  168  169 1   
   171  168  170 1   
   172  168  171 1   
   173  174  175 1   
   174  174  176 1   
   175  177  178 1   
   176  177  179 1   
   177  180  181 1   
   178  180  182 1   
   179  183  184 1   
   180  183  185 1   
@<TRIPOS>SUBSTRUCTURE
     1 MOL         1 TEMP              0 ****  ****    0 ROOT
