@<TRIPOS>MOLECULE
MOL
  192   187     1     0     0
SMALL
resp


@<TRIPOS>ATOM
      1 C1          9.1640    1.3480    1.9250 c3        1 MOL     -0.595897
      2 C2          7.9600    0.8160    1.1040 c         1 MOL      0.799556
      3 O1          6.9000    0.6900    1.7020 o         1 MOL     -0.651299
      4 H1          9.5380    0.5560    2.5740 hc        1 MOL      0.145508
      5 H2          9.9560    1.6640    1.2450 hc        1 MOL      0.145508
      6 H3          8.8450    2.1950    2.5320 hc        1 MOL      0.145508
      7 N1          8.3240    0.2800   -0.0570 n         1 MOL     -0.602760
      8 C3          7.3570    0.0800   -1.1420 c3        1 MOL      0.049102
      9 C4          6.9410   -1.4010   -1.2630 c         1 MOL      0.575785
     10 O2          6.7420   -1.9240   -2.3590 o         1 MOL     -0.476899
     11 C5          7.9550    0.6350   -2.4220 c3        1 MOL     -0.121825
     12 C6          9.3470    0.1800   -2.7680 c         1 MOL      0.684162
     13 O3         10.1000    0.7780   -3.5750 o         1 MOL     -0.641299
     14 O4          9.6260   -0.9810   -2.4570 o         1 MOL     -0.641299
     15 H4          9.2890    0.0900   -0.2730 hn        1 MOL      0.278861
     16 H5          6.4460    0.5890   -0.7940 h1        1 MOL      0.067942
     17 H6          7.9610    1.7180   -2.3730 hc        1 MOL      0.052575
     18 H7          7.2830    0.3850   -3.2440 hc        1 MOL      0.052575
     19 N2          6.7890   -2.0110   -0.1000 n         1 MOL     -0.528570
     20 C7          6.3030   -3.4000    0.1690 c3        1 MOL      0.042178
     21 C8          4.8330   -3.6290   -0.2160 c         1 MOL      0.447525
     22 O5          4.6410   -4.7160   -0.7270 o         1 MOL     -0.531592
     23 C9          6.6800   -4.0240    1.5440 c3        1 MOL      0.000003
     24 C10         8.1380   -3.8860    1.9480 c3        1 MOL     -0.063009
     25 C11         8.3190   -4.7540    3.2010 c3        1 MOL      0.074321
     26 C12         9.7460   -4.8080    3.5910 c3        1 MOL      0.005911
     27 N3         10.5290   -5.8790    2.8810 n4        1 MOL     -0.508863
     28 H8          6.8620   -1.3380    0.6560 hn        1 MOL      0.308823
     29 H9          6.9520   -3.9260   -0.5290 h1        1 MOL      0.118141
     30 H10         6.5100   -5.0960    1.4640 hc        1 MOL      0.006138
     31 H11         5.9810   -3.5780    2.2500 hc        1 MOL      0.006138
     32 H12         8.3740   -2.8410    2.1490 hc        1 MOL      0.038204
     33 H13         8.6740   -4.2200    1.0590 hc        1 MOL      0.038204
     34 H14         7.9070   -5.7500    3.0400 hc        1 MOL      0.027550
     35 H15         7.7550   -4.4210    4.0600 hc        1 MOL      0.027550
     36 H16         9.7310   -4.7380    4.6800 hx        1 MOL      0.086459
     37 H17        10.1560   -3.8220    3.3680 hx        1 MOL      0.086459
     38 H18        10.6050   -5.7840    1.8800 hn        1 MOL      0.335275
     39 H19        11.4900   -5.7950    3.2000 hn        1 MOL      0.335275
     40 H20        10.1060   -6.7900    2.9460 hn        1 MOL      0.335275
     41 N4          3.8510   -2.7390   -0.0270 n         1 MOL     -0.309456
     42 C13         3.8780   -1.5250    0.7590 c3        1 MOL      0.159766
     43 C14         4.0230   -0.1870    0.0430 c         1 MOL     -0.045012
     44 O6          3.9910   -0.0890   -1.1860 o         1 MOL     -0.368378
     45 C15         2.6010   -1.5420    1.6590 c3        1 MOL     -0.373867
     46 C16         1.3680   -2.0210    0.9430 c         1 MOL      0.863797
     47 O7          0.7670   -1.1960    0.2360 o         1 MOL     -0.721777
     48 O8          1.0120   -3.2100    1.1580 o         1 MOL     -0.721777
     49 H21         2.9550   -3.0230   -0.3830 hn        1 MOL      0.307672
     50 H22         4.7680   -1.6060    1.3910 h1        1 MOL      0.110615
     51 H23         2.2940   -0.5220    1.8970 hc        1 MOL      0.049253
     52 H24         2.8220   -2.1820    2.5180 hc        1 MOL      0.049253
     53 N5          4.0660    0.9440    0.7630 n         1 MOL     -0.017689
     54 C17         4.1000    2.2680    0.1120 c3        1 MOL     -0.049212
     55 C18         2.8070    2.7840   -0.5140 c         1 MOL      0.555300
     56 O9          1.7950    2.1030   -0.4740 o         1 MOL     -0.512561
     57 H25         4.1170    0.9880    1.7760 hn        1 MOL      0.239934
     58 H26         4.8890    2.3560   -0.6340 h1        1 MOL      0.035781
     59 H27         4.4190    3.0260    0.8260 h1        1 MOL      0.035781
     60 N6          2.9400    3.8680   -1.2050 n         1 MOL     -0.476937
     61 C19         1.8680    4.5910   -1.9260 c3        1 MOL      0.348516
     62 C20         2.3910    6.0570   -1.9870 c         1 MOL      0.306508
     63 O10         3.5650    6.4330   -1.8770 o         1 MOL     -0.486574
     64 C21         1.5960    3.9680   -3.3050 c3        1 MOL     -0.299502
     65 C22         1.2130    2.4610   -3.5420 c         1 MOL      0.750428
     66 O11         0.1000    2.0600   -3.0960 o         1 MOL     -0.673902
     67 O12         2.0690    1.7430   -4.0680 o         1 MOL     -0.673902
     68 H28         3.9030    4.1340   -1.3570 hn        1 MOL      0.285151
     69 H29         0.9780    4.4740   -1.3110 h1        1 MOL      0.054521
     70 H30         2.4690    4.0580   -3.9610 hc        1 MOL      0.061243
     71 H31         0.7710    4.5230   -3.7480 hc        1 MOL      0.061243
     72 N7          1.5230    7.0500   -2.2960 n         1 MOL     -0.340409
     73 C23         0.0530    6.9410   -2.3180 c3        1 MOL     -0.184081
     74 C24        -0.6300    6.3690   -1.0250 c         1 MOL      0.571627
     75 O13        -0.0790    6.4060    0.0540 o         1 MOL     -0.484122
     76 H32         1.9780    7.9530   -2.3340 hn        1 MOL      0.307806
     77 H33        -0.1230    6.3140   -3.1950 h1        1 MOL      0.100246
     78 H34        -0.3310    7.9210   -2.5990 h1        1 MOL      0.100246
     79 N8         -1.7920    5.7310   -1.1250 n         1 MOL     -0.480831
     80 C25        -2.3940    5.0770   -0.0170 c3        1 MOL     -0.128142
     81 C26        -1.5440    3.9520    0.5450 c         1 MOL      0.699689
     82 O14        -0.9720    3.1330   -0.1290 o         1 MOL     -0.685127
     83 C27        -3.7640    4.5240   -0.3690 c3        1 MOL      0.404877
     84 C28        -4.6570    3.9880    0.7370 c3        1 MOL     -0.345375
     85 O15        -3.8070    3.5720   -1.3950 oh        1 MOL     -0.638410
     86 H35        -2.2100    5.7160   -2.0460 hn        1 MOL      0.282710
     87 H36        -2.5280    5.9400    0.6380 h1        1 MOL      0.103563
     88 H37        -4.2860    5.4070   -0.7320 h1        1 MOL      0.008055
     89 H38        -4.3700    3.9740   -2.0560 ho        1 MOL      0.436653
     90 H39        -4.5270    2.9250    0.9490 hc        1 MOL      0.066493
     91 H40        -4.3530    4.3820    1.7100 hc        1 MOL      0.066493
     92 H41        -5.7100    4.1150    0.4850 hc        1 MOL      0.066493
     93 N9         -1.4850    3.8660    1.8650 n         1 MOL     -0.459969
     94 C29        -0.8900    2.7790    2.7210 c3        1 MOL     -0.027769
     95 C30        -1.3090    1.3380    2.4200 c         1 MOL      0.756307
     96 O16        -0.9350    0.7580    1.4230 o         1 MOL     -0.587416
     97 C31         0.6230    2.9340    2.7580 c3        1 MOL      0.484225
     98 C32         1.2960    4.3300    2.8800 c3        1 MOL     -0.443545
     99 C33         1.1130    1.9730    3.8060 c3        1 MOL     -0.609980
    100 C34         0.8170    5.1540    4.0600 c3        1 MOL     -0.339244
    101 H42        -1.8480    4.6560    2.3890 hn        1 MOL      0.272579
    102 H43        -1.1720    2.9120    3.7640 h1        1 MOL      0.030054
    103 H44         1.0290    2.5770    1.8140 hc        1 MOL     -0.156839
    104 H45         1.0950    4.9020    1.9790 hc        1 MOL      0.177918
    105 H46         2.3730    4.2830    2.9990 hc        1 MOL      0.177918
    106 H47         2.1860    2.0590    4.0000 hc        1 MOL      0.148470
    107 H48         0.5870    2.2460    4.7180 hc        1 MOL      0.148470
    108 H49         0.8630    0.9680    3.4780 hc        1 MOL      0.148470
    109 H50        -0.2640    5.1970    3.9780 hc        1 MOL      0.102707
    110 H51         1.1540    4.6760    4.9850 hc        1 MOL      0.102707
    111 H52         1.3070    6.1270    3.9980 hc        1 MOL      0.102707
    112 N10        -2.0800    0.7300    3.3290 n         1 MOL     -0.722175
    113 C35        -2.4280   -0.7120    3.3360 c3        1 MOL     -0.007548
    114 C36        -3.8340   -0.9740    2.8630 c         1 MOL      0.752789
    115 O17        -3.9840   -2.0670    2.3270 o         1 MOL     -0.616723
    116 C37        -2.1360   -1.2840    4.7550 c3        1 MOL      0.463416
    117 C38        -2.2130   -2.8210    4.8020 c3        1 MOL     -0.439916
    118 O18        -3.0830   -0.7520    5.6290 oh        1 MOL     -0.661859
    119 H53        -2.5450    1.2890    4.0270 hn        1 MOL      0.286006
    120 H54        -1.7300   -1.1430    2.6200 h1        1 MOL      0.104033
    121 H55        -1.1310   -0.9930    5.0590 h1        1 MOL     -0.010353
    122 H56        -2.6770   -0.2860    6.3640 ho        1 MOL      0.403804
    123 H57        -1.3860   -3.2080    4.2130 hc        1 MOL      0.119084
    124 H58        -2.1080   -3.0870    5.8520 hc        1 MOL      0.119084
    125 H59        -3.1940   -3.1710    4.5000 hc        1 MOL      0.119084
    126 N11        -4.7500    0.0120    2.8960 n         1 MOL     -0.501431
    127 C39        -6.1480   -0.1450    2.4880 c3        1 MOL     -0.160544
    128 C40        -6.2980   -0.5310    1.0060 c         1 MOL      0.472305
    129 O19        -5.7940    0.1270    0.0600 o         1 MOL     -0.449442
    130 C41        -7.0870    1.0530    2.8260 c3        1 MOL      0.185718
    131 C42        -8.3850    1.0810    1.9610 c3        1 MOL     -0.264482
    132 O20        -7.5510    0.9660    4.1730 oh        1 MOL     -0.570781
    133 H60        -4.4300    0.9320    3.1610 hn        1 MOL      0.305038
    134 H61        -6.5260   -0.9830    3.0700 h1        1 MOL      0.132283
    135 H62        -6.5770    2.0220    2.7980 h1        1 MOL      0.113478
    136 H63        -6.8790    0.4980    4.6700 ho        1 MOL      0.378334
    137 H64        -8.2870    1.1490    0.8740 hc        1 MOL      0.086728
    138 H65        -8.9690    0.1590    2.0260 hc        1 MOL      0.086728
    139 H66        -9.0760    1.8550    2.3040 hc        1 MOL      0.086728
    140 N12        -6.8470   -1.7590    0.8520 n         1 MOL     -0.301025
    141 C43        -6.9400   -2.5410   -0.4170 c3        1 MOL      0.035671
    142 C44        -5.6610   -2.3800   -1.2680 c         1 MOL      0.481873
    143 O21        -5.6720   -1.5750   -2.2440 o         1 MOL     -0.578402
    144 C45        -8.1880   -2.0880   -1.2290 c3        1 MOL     -0.275688
    145 C46        -9.5720   -2.3110   -0.5800 c3        1 MOL      0.171002
    146 C47       -10.6450   -1.9300   -1.6540 c3        1 MOL     -0.066454
    147 C48       -11.9100   -1.9980   -0.7890 c3        1 MOL      0.051913
    148 N13       -13.1920   -1.6480   -1.4180 n4        1 MOL     -0.142270
    149 H67        -7.2620   -2.1930    1.6650 hn        1 MOL      0.228592
    150 H68        -7.0590   -3.6200   -0.2600 h1        1 MOL      0.057544
    151 H69        -8.1370   -2.5320   -2.2190 hc        1 MOL      0.116501
    152 H70        -8.1000   -1.0150   -1.4040 hc        1 MOL      0.116501
    153 H71        -9.7520   -1.6660    0.2750 hc        1 MOL     -0.023127
    154 H72        -9.7310   -3.3380   -0.2640 hc        1 MOL     -0.023127
    155 H73       -10.4990   -2.6850   -2.4320 hc        1 MOL      0.045330
    156 H74       -10.3660   -0.9780   -2.0960 hc        1 MOL      0.045330
    157 H75       -11.7700   -1.2680    0.0150 hx        1 MOL      0.049327
    158 H76       -11.9750   -2.9680   -0.3010 hx        1 MOL      0.049327
    159 H77       -13.2170   -0.7440   -1.8600 hn        1 MOL      0.176096
    160 H78       -13.4310   -2.2570   -2.1970 hn        1 MOL      0.176096
    161 H79       -14.0260   -1.7120   -0.8530 hn        1 MOL      0.176096
    162 N14        -4.6490   -3.1210   -0.9800 n         1 MOL     -0.525348
    163 C49        -3.3990   -3.2080   -1.7830 c3        1 MOL      0.856230
    164 C50        -2.1760   -2.8100   -0.8850 c         1 MOL      0.217435
    165 O22        -1.6380   -1.7740   -1.2240 o         1 MOL     -0.556595
    166 C51        -3.2190   -4.5400   -2.5060 c3        1 MOL     -0.279692
    167 C52        -3.6420   -4.4690   -3.9280 c3        1 MOL     -0.096763
    168 C53        -3.0600   -5.6950   -4.6650 c         1 MOL      0.679630
    169 O23        -3.4310   -6.8320   -4.2960 o         1 MOL     -0.619447
    170 O24        -2.4060   -5.4850   -5.7490 o         1 MOL     -0.619447
    171 H80        -4.7070   -3.6930   -0.1600 hn        1 MOL      0.262325
    172 H81        -3.4270   -2.4200   -2.5400 h1        1 MOL     -0.131875
    173 H82        -3.7460   -5.2880   -1.9070 hc        1 MOL      0.034187
    174 H83        -2.1460   -4.7570   -2.5210 hc        1 MOL      0.034187
    175 H84        -3.2750   -3.6180   -4.4910 hc        1 MOL      0.018370
    176 H85        -4.7360   -4.5280   -3.9320 hc        1 MOL      0.018370
    177 N15        -1.8520   -3.4520    0.1930 n         1 MOL     -0.193840
    178 C54        -2.1740   -4.8710    0.5490 c3        1 MOL      0.134805
    179 H86        -2.3620   -4.9430    1.6200 h1        1 MOL     -0.007184
    180 H87        -3.0610   -5.1920    0.0010 h1        1 MOL     -0.007184
    181 H88        -1.3320   -5.5120    0.2840 h1        1 MOL     -0.007184
    182 H89        -1.1500   -3.0410    0.7940 hn        1 MOL      0.264913
    183 Ca1        -0.3100    0.6340   -1.0220 Ca        1 MOL      1.750826
    184 O25        -2.2890   -0.1700   -3.2590 oh        1 MOL     -0.847926
    185 H90        -3.1170    0.0300   -3.7050 ho        1 MOL      0.414488
    186 H91        -2.5530   -0.5600   -2.4250 ho        1 MOL      0.414488
    187 O26         1.2160   -0.5430   -2.9160 oh        1 MOL     -0.847926
    188 H92         1.5220    0.1540   -3.5060 ho        1 MOL      0.414488
    189 H93         2.0030   -1.0500   -2.7130 ho        1 MOL      0.414488
    190 O27        -3.1370    0.8600   -0.8950 oh        1 MOL     -0.847926
    191 H94        -3.4210    1.7370   -1.1530 ho        1 MOL      0.414488
    192 H95        -3.8120    0.5510   -0.2880 ho        1 MOL      0.414488
@<TRIPOS>BOND
     1    1    2 1   
     2    1    4 1   
     3    1    5 1   
     4    1    6 1   
     5    2    3 2   
     6    2    7 1   
     7    7    8 1   
     8    7   15 1   
     9    8    9 1   
    10    8   11 1   
    11    8   16 1   
    12    9   10 2   
    13    9   19 1   
    14   11   12 1   
    15   11   17 1   
    16   11   18 1   
    17   12   13 1   
    18   12   14 1   
    19   19   20 1   
    20   19   28 1   
    21   20   21 1   
    22   20   23 1   
    23   20   29 1   
    24   21   22 2   
    25   21   41 1   
    26   23   24 1   
    27   23   30 1   
    28   23   31 1   
    29   24   25 1   
    30   24   32 1   
    31   24   33 1   
    32   25   26 1   
    33   25   34 1   
    34   25   35 1   
    35   26   27 1   
    36   26   36 1   
    37   26   37 1   
    38   27   38 1   
    39   27   39 1   
    40   27   40 1   
    41   41   42 1   
    42   41   49 1   
    43   42   43 1   
    44   42   45 1   
    45   42   50 1   
    46   43   44 2   
    47   43   53 1   
    48   45   46 1   
    49   45   51 1   
    50   45   52 1   
    51   46   47 1   
    52   46   48 1   
    53   53   54 1   
    54   53   57 1   
    55   54   55 1   
    56   54   58 1   
    57   54   59 1   
    58   55   56 2   
    59   55   60 1   
    60   60   61 1   
    61   60   68 1   
    62   61   62 1   
    63   61   64 1   
    64   61   69 1   
    65   62   63 2   
    66   62   72 1   
    67   64   65 1   
    68   64   70 1   
    69   64   71 1   
    70   65   66 1   
    71   65   67 1   
    72   72   73 1   
    73   72   76 1   
    74   73   74 1   
    75   73   77 1   
    76   73   78 1   
    77   74   75 2   
    78   74   79 1   
    79   79   80 1   
    80   79   86 1   
    81   80   81 1   
    82   80   83 1   
    83   80   87 1   
    84   81   82 2   
    85   81   93 1   
    86   83   84 1   
    87   83   85 1   
    88   83   88 1   
    89   84   90 1   
    90   84   91 1   
    91   84   92 1   
    92   85   89 1   
    93   93   94 1   
    94   93  101 1   
    95   94   95 1   
    96   94   97 1   
    97   94  102 1   
    98   95   96 2   
    99   95  112 1   
   100   97   98 1   
   101   97   99 1   
   102   97  103 1   
   103   98  100 1   
   104   98  104 1   
   105   98  105 1   
   106   99  106 1   
   107   99  107 1   
   108   99  108 1   
   109  100  109 1   
   110  100  110 1   
   111  100  111 1   
   112  112  113 1   
   113  112  119 1   
   114  113  114 1   
   115  113  116 1   
   116  113  120 1   
   117  114  115 2   
   118  114  126 1   
   119  116  117 1   
   120  116  118 1   
   121  116  121 1   
   122  117  123 1   
   123  117  124 1   
   124  117  125 1   
   125  118  122 1   
   126  126  127 1   
   127  126  133 1   
   128  127  128 1   
   129  127  130 1   
   130  127  134 1   
   131  128  129 2   
   132  128  140 1   
   133  130  131 1   
   134  130  132 1   
   135  130  135 1   
   136  131  137 1   
   137  131  138 1   
   138  131  139 1   
   139  132  136 1   
   140  140  141 1   
   141  140  149 1   
   142  141  142 1   
   143  141  144 1   
   144  141  150 1   
   145  142  143 2   
   146  142  162 1   
   147  144  145 1   
   148  144  151 1   
   149  144  152 1   
   150  145  146 1   
   151  145  153 1   
   152  145  154 1   
   153  146  147 1   
   154  146  155 1   
   155  146  156 1   
   156  147  148 1   
   157  147  157 1   
   158  147  158 1   
   159  148  159 1   
   160  148  160 1   
   161  148  161 1   
   162  162  163 1   
   163  162  171 1   
   164  163  164 1   
   165  163  166 1   
   166  163  172 1   
   167  164  165 2   
   168  164  177 1   
   169  166  167 1   
   170  166  173 1   
   171  166  174 1   
   172  167  168 1   
   173  167  175 1   
   174  167  176 1   
   175  168  169 1   
   176  168  170 1   
   177  177  178 1   
   178  177  182 1   
   179  178  179 1   
   180  178  180 1   
   181  178  181 1   
   182  184  185 1   
   183  184  186 1   
   184  187  188 1   
   185  187  189 1   
   186  190  191 1   
   187  190  192 1   
@<TRIPOS>SUBSTRUCTURE
     1 MOL         1 TEMP              0 ****  ****    0 ROOT
