@<TRIPOS>MOLECULE
MOL
  178   175     1     0     0
SMALL
resp


@<TRIPOS>ATOM
      1 C1         10.9270    5.7780    1.2020 c3        1 MOL     -0.360461
      2 C2         10.4760    4.4080    1.6570 c         1 MOL      0.720726
      3 O1         10.1600    4.3010    2.8050 o         1 MOL     -0.593702
      4 H1         11.0680    6.4210    2.0710 hc        1 MOL      0.103512
      5 H2         11.8680    5.6900    0.6600 hc        1 MOL      0.103512
      6 H3         10.1700    6.2120    0.5480 hc        1 MOL      0.103512
      7 N1         10.3160    3.3310    0.9020 n         1 MOL     -0.486452
      8 C3         10.5810    3.0830   -0.5010 c3        1 MOL     -0.212003
      9 C4         10.8820    1.6120   -0.8080 c         1 MOL      0.811449
     10 O2         10.2450    0.7390   -0.1820 o         1 MOL     -0.674123
     11 C5          9.4030    3.4120   -1.3990 c3        1 MOL     -0.032321
     12 C6          8.0090    3.2920   -0.8280 c         1 MOL      0.702256
     13 O3          7.2250    4.1910   -1.0740 o         1 MOL     -0.654434
     14 O4          7.6310    2.2240   -0.3020 o         1 MOL     -0.654434
     15 H4         10.2210    2.4510    1.3870 hn        1 MOL      0.277066
     16 H5         11.3480    3.7190   -0.9380 h1        1 MOL      0.089187
     17 H6          9.5310    2.8200   -2.3100 hc        1 MOL      0.016278
     18 H7          9.4640    4.4660   -1.6500 hc        1 MOL      0.016278
     19 N2         11.7990    1.3980   -1.7520 n         1 MOL     -0.614006
     20 C7         12.5490    0.1080   -2.0600 c3        1 MOL      0.301852
     21 C8         11.6420   -1.0320   -2.5890 c         1 MOL      0.272630
     22 O5         12.1250   -1.7840   -3.4670 o         1 MOL     -0.540586
     23 C9         13.4250   -0.3880   -0.9290 c3        1 MOL     -0.407253
     24 H8         12.2420    2.2210   -2.1280 hn        1 MOL      0.322896
     25 H9         13.2350    0.3340   -2.8830 h1        1 MOL      0.045760
     26 H10        13.8360   -1.3320   -1.2700 hc        1 MOL      0.116829
     27 H11        14.1460    0.4050   -0.7100 hc        1 MOL      0.116829
     28 H12        12.7950   -0.6470   -0.0790 hc        1 MOL      0.116829
     29 N3         10.3810   -1.1170   -2.2020 n         1 MOL      0.202823
     30 C10         9.3350   -2.0040   -2.7480 c3        1 MOL     -0.327923
     31 C11         7.9660   -1.2990   -2.4990 c         1 MOL      0.675676
     32 O6          7.9160   -0.1940   -1.8950 o         1 MOL     -0.584021
     33 C12         9.3310   -3.3250   -2.0190 c3        1 MOL     -0.084639
     34 C13         9.3410   -3.3020   -0.4290 c         1 MOL      0.518266
     35 O7          9.6980   -4.3080    0.1860 o         1 MOL     -0.616498
     36 O8          8.8100   -2.3900    0.3130 o         1 MOL     -0.616498
     37 H13        10.0900   -0.3810   -1.5780 hn        1 MOL     -0.092154
     38 H14         9.6130   -2.2050   -3.7910 h1        1 MOL      0.127889
     39 H15        10.2490   -3.8950   -2.1590 hc        1 MOL      0.058920
     40 H16         8.5840   -4.0570   -2.3190 hc        1 MOL      0.058920
     41 N4          6.8920   -1.8970   -2.9580 n         1 MOL     -0.528355
     42 C14         5.4740   -1.2830   -2.8220 c3        1 MOL     -0.068329
     43 C15         5.0550   -1.2140   -1.3500 c         1 MOL      0.573154
     44 O9          5.9270   -1.4410   -0.4660 o         1 MOL     -0.574170
     45 H17         6.9550   -2.8460   -3.2890 hn        1 MOL      0.345897
     46 H18         4.7060   -1.8900   -3.3000 h1        1 MOL      0.114358
     47 H19         5.3820   -0.3020   -3.3030 h1        1 MOL      0.114358
     48 N5          3.8510   -0.8760   -0.9530 n         1 MOL     -0.515151
     49 C16         3.3620   -0.9290    0.4310 c3        1 MOL      0.005274
     50 C17         2.0270   -1.5750    0.5810 c         1 MOL      0.625074
     51 O10         0.9800   -1.0980    0.1590 o         1 MOL     -0.446609
     52 C18         3.3490    0.4980    0.9110 c3        1 MOL     -0.185524
     53 C19         4.6930    1.2390    0.8230 c         1 MOL      0.531736
     54 N6          4.8390    2.2190   -0.0430 n         1 MOL     -0.640071
     55 O11         5.6110    1.0070    1.5670 o         1 MOL     -0.542018
     56 H20         3.2700   -0.5980   -1.7320 hn        1 MOL      0.307422
     57 H21         4.1050   -1.4260    1.0550 h1        1 MOL      0.043880
     58 H22         3.0190    0.5270    1.9430 hc        1 MOL      0.104974
     59 H23         2.5310    1.0440    0.4380 hc        1 MOL      0.104974
     60 H24         4.0750    2.4530   -0.6630 hn        1 MOL      0.329235
     61 H25         5.7470    2.6390   -0.1870 hn        1 MOL      0.329235
     62 N7          2.0020   -2.6880    1.3300 n         1 MOL     -0.516205
     63 C20         0.7910   -3.3310    1.9060 c3        1 MOL     -0.213186
     64 C21         0.1260   -2.4440    2.9610 c         1 MOL      0.675872
     65 O12         0.6580   -1.4110    3.3960 o         1 MOL     -0.567930
     66 H26         2.7850   -3.2020    1.7010 hn        1 MOL      0.317566
     67 H27         1.0970   -4.1910    2.4920 h1        1 MOL      0.145923
     68 H28         0.1340   -3.5980    1.0840 h1        1 MOL      0.145923
     69 N8         -1.0650   -2.7990    3.4450 n         1 MOL     -0.498075
     70 C22        -1.7710   -4.0770    3.2210 c3        1 MOL     -0.130881
     71 C23        -2.9340   -3.7720    2.2060 c         1 MOL      0.575034
     72 O13        -3.4290   -4.7750    1.6510 o         1 MOL     -0.570607
     73 C24        -2.3270   -4.4290    4.5690 c3        1 MOL      0.474921
     74 C25        -1.2030   -4.5900    5.5490 c3        1 MOL     -0.492864
     75 O14        -3.1500   -3.4470    5.1020 oh        1 MOL     -0.628054
     76 H29        -1.4910   -2.2700    4.1890 hn        1 MOL      0.324538
     77 H30        -1.0950   -4.8000    2.7670 h1        1 MOL      0.084086
     78 H31        -2.8800   -5.3560    4.4290 h1        1 MOL     -0.025563
     79 H32        -3.6660   -3.8630    5.7910 ho        1 MOL      0.410724
     80 H33        -1.0160   -3.6170    5.9940 hc        1 MOL      0.114352
     81 H34        -1.5380   -5.2740    6.3230 hc        1 MOL      0.114352
     82 H35        -0.3190   -4.9040    4.9990 hc        1 MOL      0.114352
     83 N9         -3.2260   -2.4980    1.8970 n         1 MOL     -0.502114
     84 C26        -4.1510   -2.1930    0.8190 c3        1 MOL      0.253714
     85 C27        -3.6050   -1.1570   -0.2620 c         1 MOL      0.346301
     86 O15        -2.6780   -0.3890    0.0490 o         1 MOL     -0.520315
     87 C28        -5.5820   -1.7900    1.3630 c3        1 MOL      0.308703
     88 C29        -5.4970   -0.4630    2.1510 c3        1 MOL     -0.146482
     89 C30        -6.3130   -2.9590    2.1080 c3        1 MOL     -0.243459
     90 C31        -6.7770    0.3170    2.5820 c3        1 MOL     -0.130324
     91 H36        -2.7370   -1.7730    2.4160 hn        1 MOL      0.290401
     92 H37        -4.3030   -3.0930    0.2140 h1        1 MOL      0.055979
     93 H38        -6.2450   -1.6290    0.5160 hc        1 MOL     -0.067576
     94 H39        -4.7740    0.1760    1.6420 hc        1 MOL      0.020782
     95 H40        -5.1250   -0.8090    3.1190 hc        1 MOL      0.020782
     96 H41        -6.3550   -3.7500    1.3520 hc        1 MOL      0.040091
     97 H42        -5.6590   -3.3770    2.8690 hc        1 MOL      0.040091
     98 H43        -7.3030   -2.6940    2.4850 hc        1 MOL      0.040091
     99 H44        -7.3570    0.4480    1.6730 hc        1 MOL      0.030950
    100 H45        -7.3060   -0.3150    3.2920 hc        1 MOL      0.030950
    101 H46        -6.6110    1.2980    3.0180 hc        1 MOL      0.030950
    102 N10        -4.2260   -0.9980   -1.4690 n         1 MOL     -0.405375
    103 C32        -5.4180   -1.6550   -2.0250 c3        1 MOL      0.087052
    104 C33        -6.4190   -0.5430   -2.3100 c         1 MOL      0.134473
    105 O16        -6.1380    0.4730   -2.9270 o         1 MOL     -0.371074
    106 C34        -4.9310   -2.5260   -3.1940 c3        1 MOL     -0.159150
    107 C35        -6.0340   -3.1460   -4.0560 c         1 MOL      0.756197
    108 O17        -6.4600   -2.5470   -5.0510 o         1 MOL     -0.735911
    109 O18        -6.3740   -4.2970   -3.7880 o         1 MOL     -0.735911
    110 H47        -3.8030   -0.3060   -2.0660 hn        1 MOL      0.346688
    111 H48        -5.8330   -2.3690   -1.3060 h1        1 MOL      0.013193
    112 H49        -4.2670   -3.3120   -2.8410 hc        1 MOL      0.017466
    113 H50        -4.2440   -1.9150   -3.7810 hc        1 MOL      0.017466
    114 N11        -7.5560   -0.7860   -1.6820 n         1 MOL     -0.158331
    115 C36        -8.7490    0.1530   -1.6630 c3        1 MOL      0.458180
    116 C37        -9.3410    0.2020   -0.2370 c         1 MOL      0.264209
    117 O19        -9.1870   -0.7830    0.4920 o         1 MOL     -0.503579
    118 C38        -9.7560   -0.2660   -2.7740 c3        1 MOL     -0.242031
    119 C39       -10.7630   -1.3380   -2.2990 ca        1 MOL     -0.000037
    120 C40       -10.3850   -2.7060   -2.1810 ca        1 MOL     -0.054342
    121 C41       -12.0200   -0.9650   -1.8060 ca        1 MOL     -0.054342
    122 C42       -11.3350   -3.6370   -1.7240 ca        1 MOL     -0.140191
    123 C43       -12.9250   -1.8870   -1.3460 ca        1 MOL     -0.140191
    124 C44       -12.6040   -3.2310   -1.2840 ca        1 MOL     -0.147076
    125 H51        -7.6130   -1.5390   -1.0120 hn        1 MOL      0.226432
    126 H52        -8.3970    1.1120   -2.0490 h1        1 MOL     -0.035638
    127 H53        -9.1840   -0.7370   -3.5750 hc        1 MOL      0.084375
    128 H54       -10.3500    0.5990   -3.0700 hc        1 MOL      0.084375
    129 H55        -9.4440   -3.0370   -2.5980 ha        1 MOL      0.085126
    130 H56       -12.2700    0.0800   -1.8580 ha        1 MOL      0.085126
    131 H57       -11.0560   -4.6850   -1.6650 ha        1 MOL      0.101157
    132 H58       -13.8970   -1.5670   -0.9910 ha        1 MOL      0.101157
    133 H59       -13.3040   -4.0020   -1.0340 ha        1 MOL      0.101032
    134 N12       -10.0220    1.2240    0.2200 n         1 MOL     -0.222242
    135 C45       -10.3470    2.4550   -0.5220 c3        1 MOL     -0.011967
    136 C46        -9.1620    3.5320   -0.5520 c         1 MOL      0.555284
    137 O20        -9.3960    4.5090   -1.2760 o         1 MOL     -0.568456
    138 C47       -11.5750    2.9920    0.2260 c3        1 MOL     -0.326754
    139 C48       -11.3090    2.6120    1.6980 c3        1 MOL      0.041402
    140 C49       -10.7250    1.2320    1.5310 c3        1 MOL     -0.015127
    141 H60       -10.5530    2.2710   -1.5770 h1        1 MOL      0.082569
    142 H61       -11.6460    4.0470    0.0020 hc        1 MOL      0.104805
    143 H62       -12.4950    2.5150   -0.1180 hc        1 MOL      0.104805
    144 H63       -10.4620    3.2040    2.0380 hc        1 MOL      0.017197
    145 H64       -12.0920    2.4750    2.4430 hc        1 MOL      0.017197
    146 H65       -10.0040    1.1170    2.3410 h1        1 MOL      0.067383
    147 H66       -11.5540    0.5380    1.6420 h1        1 MOL      0.067383
    148 N13        -8.1400    3.3070    0.2220 n         1 MOL     -0.366936
    149 C50        -7.0810    4.2830    0.4650 c3        1 MOL      0.215885
    150 C51        -7.4070    5.1910    1.6820 c         1 MOL      0.373423
    151 O21        -7.6610    4.6290    2.7500 o         1 MOL     -0.563529
    152 C52        -5.7220    3.5610    0.6970 c3        1 MOL     -0.362050
    153 C53        -5.2100    2.6180   -0.4320 c3        1 MOL     -0.132927
    154 C54        -4.5710    3.4910   -1.6280 c         1 MOL      0.674450
    155 O22        -3.4890    3.1000   -2.1160 o         1 MOL     -0.704867
    156 O23        -5.2040    4.5080   -2.0440 o         1 MOL     -0.704867
    157 H67        -8.1940    2.5230    0.8630 hn        1 MOL      0.322818
    158 H68        -7.1200    5.0680   -0.2960 h1        1 MOL      0.067601
    159 H69        -5.8900    2.9210    1.5690 hc        1 MOL      0.129972
    160 H70        -5.0040    4.3600    0.8710 hc        1 MOL      0.129972
    161 H71        -6.0250    2.0770   -0.9040 hc        1 MOL      0.049982
    162 H72        -4.4010    2.0190   -0.0030 hc        1 MOL      0.049982
    163 N14        -7.1220    6.5010    1.6170 n         1 MOL     -0.355821
    164 C55        -6.4210    7.2520    0.6770 c3        1 MOL      0.075905
    165 H73        -6.1750    6.6250   -0.1800 h1        1 MOL      0.018801
    166 H74        -7.0360    8.0900    0.3490 h1        1 MOL      0.018801
    167 H75        -5.5010    7.6300    1.1250 h1        1 MOL      0.018801
    168 H76        -7.1280    7.0140    2.4840 hn        1 MOL      0.255365
    169 Ca1         7.9480    0.0020    0.7380 Ca        1 MOL      1.721945
    170 O24         6.4260   -1.6620    2.4180 oh        1 MOL     -0.805743
    171 H77         6.4060   -2.5370    2.0200 ho        1 MOL      0.396499
    172 H78         5.5240   -1.4800    2.6450 ho        1 MOL      0.396499
    173 O25         9.8630   -0.8630    2.5930 oh        1 MOL     -0.805743
    174 H79        10.1680   -1.7810    2.5720 ho        1 MOL      0.396499
    175 H80        10.6720   -0.3520    2.4720 ho        1 MOL      0.396499
    176 O26         8.4500    1.7900    2.7840 oh        1 MOL     -0.805743
    177 H81         9.2010    2.1270    3.2610 ho        1 MOL      0.396499
    178 H82         7.7170    1.8390    3.4120 ho        1 MOL      0.396499
@<TRIPOS>BOND
     1    1    2 1   
     2    1    4 1   
     3    1    5 1   
     4    1    6 1   
     5    2    3 2   
     6    2    7 1   
     7    7    8 1   
     8    7   15 1   
     9    8    9 1   
    10    8   11 1   
    11    8   16 1   
    12    9   10 2   
    13    9   19 1   
    14   11   12 1   
    15   11   17 1   
    16   11   18 1   
    17   12   13 1   
    18   12   14 1   
    19   19   20 1   
    20   19   24 1   
    21   20   21 1   
    22   20   23 1   
    23   20   25 1   
    24   21   22 2   
    25   21   29 1   
    26   23   26 1   
    27   23   27 1   
    28   23   28 1   
    29   29   30 1   
    30   29   37 1   
    31   30   31 1   
    32   30   33 1   
    33   30   38 1   
    34   31   32 2   
    35   31   41 1   
    36   33   34 1   
    37   33   39 1   
    38   33   40 1   
    39   34   35 1   
    40   34   36 1   
    41   41   42 1   
    42   41   45 1   
    43   42   43 1   
    44   42   46 1   
    45   42   47 1   
    46   43   44 2   
    47   43   48 1   
    48   48   49 1   
    49   48   56 1   
    50   49   50 1   
    51   49   52 1   
    52   49   57 1   
    53   50   51 2   
    54   50   62 1   
    55   52   53 1   
    56   52   58 1   
    57   52   59 1   
    58   53   54 1   
    59   53   55 2   
    60   54   60 1   
    61   54   61 1   
    62   62   63 1   
    63   62   66 1   
    64   63   64 1   
    65   63   67 1   
    66   63   68 1   
    67   64   65 2   
    68   64   69 1   
    69   69   70 1   
    70   69   76 1   
    71   70   71 1   
    72   70   73 1   
    73   70   77 1   
    74   71   72 2   
    75   71   83 1   
    76   73   74 1   
    77   73   75 1   
    78   73   78 1   
    79   74   80 1   
    80   74   81 1   
    81   74   82 1   
    82   75   79 1   
    83   83   84 1   
    84   83   91 1   
    85   84   85 1   
    86   84   87 1   
    87   84   92 1   
    88   85   86 2   
    89   85  102 1   
    90   87   88 1   
    91   87   89 1   
    92   87   93 1   
    93   88   90 1   
    94   88   94 1   
    95   88   95 1   
    96   89   96 1   
    97   89   97 1   
    98   89   98 1   
    99   90   99 1   
   100   90  100 1   
   101   90  101 1   
   102  102  103 1   
   103  102  110 1   
   104  103  104 1   
   105  103  106 1   
   106  103  111 1   
   107  104  105 2   
   108  104  114 1   
   109  106  107 1   
   110  106  112 1   
   111  106  113 1   
   112  107  108 1   
   113  107  109 1   
   114  114  115 1   
   115  114  125 1   
   116  115  116 1   
   117  115  118 1   
   118  115  126 1   
   119  116  117 2   
   120  116  134 1   
   121  118  119 1   
   122  118  127 1   
   123  118  128 1   
   124  119  120 ar  
   125  119  121 ar  
   126  120  122 ar  
   127  120  129 1   
   128  121  123 ar  
   129  121  130 1   
   130  122  124 ar  
   131  122  131 1   
   132  123  124 ar  
   133  123  132 1   
   134  124  133 1   
   135  134  135 1   
   136  134  140 1   
   137  135  136 1   
   138  135  138 1   
   139  135  141 1   
   140  136  137 2   
   141  136  148 1   
   142  138  139 1   
   143  138  142 1   
   144  138  143 1   
   145  139  140 1   
   146  139  144 1   
   147  139  145 1   
   148  140  146 1   
   149  140  147 1   
   150  148  149 1   
   151  148  157 1   
   152  149  150 1   
   153  149  152 1   
   154  149  158 1   
   155  150  151 2   
   156  150  163 1   
   157  152  153 1   
   158  152  159 1   
   159  152  160 1   
   160  153  154 1   
   161  153  161 1   
   162  153  162 1   
   163  154  155 1   
   164  154  156 1   
   165  163  164 1   
   166  163  168 1   
   167  164  165 1   
   168  164  166 1   
   169  164  167 1   
   170  170  171 1   
   171  170  172 1   
   172  173  174 1   
   173  173  175 1   
   174  176  177 1   
   175  176  178 1   
@<TRIPOS>SUBSTRUCTURE
     1 MOL         1 TEMP              0 ****  ****    0 ROOT
