@<TRIPOS>MOLECULE
MOL
  192   187     1     0     0
SMALL
resp


@<TRIPOS>ATOM
      1 C1          9.4370    0.5180    1.3430 c3        1 MOL     -0.461306
      2 C2          8.1890    0.0140    0.5820 c         1 MOL      0.705630
      3 O1          7.0350   -0.0330    1.0680 o         1 MOL     -0.668382
      4 H1         10.3140   -0.0350    1.0090 hc        1 MOL      0.119936
      5 H2          9.5800    1.5800    1.1440 hc        1 MOL      0.119936
      6 H3          9.2970    0.3650    2.4130 hc        1 MOL      0.119936
      7 N1          8.3760   -0.4880   -0.6320 n         1 MOL     -0.441065
      8 C3          7.2010   -0.8600   -1.5110 c3        1 MOL     -0.286532
      9 C4          6.3820   -2.0560   -1.1350 c         1 MOL      0.657687
     10 O2          5.7170   -2.5970   -1.9790 o         1 MOL     -0.464986
     11 C5          7.6630   -0.9650   -3.0160 c3        1 MOL     -0.019138
     12 C6          8.9070   -1.7350   -3.3510 c         1 MOL      0.653501
     13 O3          9.5210   -2.2670   -2.3880 o         1 MOL     -0.649005
     14 O4          9.2320   -1.8850   -4.5810 o         1 MOL     -0.649005
     15 H4          9.2910   -0.5970   -1.0420 hn        1 MOL      0.272930
     16 H5          6.5070   -0.0270   -1.4360 h1        1 MOL      0.196351
     17 H6          7.6870    0.0500   -3.4200 hc        1 MOL      0.038599
     18 H7          6.8800   -1.3900   -3.6480 hc        1 MOL      0.038599
     19 N2          6.4030   -2.5140    0.1260 n         1 MOL     -0.323267
     20 C7          5.8640   -3.6610    0.7030 c3        1 MOL     -0.045228
     21 C8          4.3420   -3.8930    0.4080 c         1 MOL      0.492237
     22 O5          3.9470   -4.9910    0.0200 o         1 MOL     -0.548619
     23 C9          6.2250   -3.7190    2.2210 c3        1 MOL      0.026064
     24 C10         7.6920   -3.6770    2.5340 c3        1 MOL     -0.065893
     25 C11         7.8290   -3.6700    4.0580 c3        1 MOL     -0.141719
     26 C12         9.2860   -3.3330    4.3660 c3        1 MOL      0.149645
     27 N3          9.6450   -3.5460    5.7740 n4        1 MOL     -0.288851
     28 H8          6.6910   -1.8270    0.8130 hn        1 MOL      0.229191
     29 H9          6.3940   -4.5180    0.2960 h1        1 MOL      0.080558
     30 H10         5.7490   -4.6320    2.5930 hc        1 MOL      0.022973
     31 H11         5.6360   -2.9900    2.7720 hc        1 MOL      0.022973
     32 H12         8.1360   -2.8180    2.0240 hc        1 MOL      0.052012
     33 H13         8.1670   -4.5700    2.1360 hc        1 MOL      0.052012
     34 H14         7.4500   -4.6450    4.3540 hc        1 MOL      0.057485
     35 H15         7.1620   -2.9440    4.5180 hc        1 MOL      0.057485
     36 H16         9.5820   -2.3670    3.9550 hx        1 MOL      0.048322
     37 H17         9.8930   -4.0090    3.7700 hx        1 MOL      0.048322
     38 H18        10.5920   -3.2690    5.9740 hn        1 MOL      0.269790
     39 H19         9.0040   -3.1880    6.4590 hn        1 MOL      0.269790
     40 H20         9.6170   -4.5440    5.9150 hn        1 MOL      0.269790
     41 N4          3.3840   -2.9750    0.5560 n         1 MOL     -0.339241
     42 C13         3.3740   -1.7130    1.2990 c3        1 MOL     -0.007545
     43 C14         3.6050   -0.5310    0.3460 c         1 MOL      0.020253
     44 O6          3.4850   -0.6670   -0.8760 o         1 MOL     -0.383815
     45 C15         2.1260   -1.6290    2.2250 c3        1 MOL     -0.206132
     46 C16         0.8560   -1.7480    1.4310 c         1 MOL      0.675258
     47 O7          0.8050   -1.3610    0.2360 o         1 MOL     -0.632105
     48 O8         -0.1070   -2.2510    2.0400 o         1 MOL     -0.632105
     49 H21         2.5150   -3.0760    0.0340 hn        1 MOL      0.337544
     50 H22         4.2060   -1.7810    1.9980 h1        1 MOL      0.100402
     51 H23         2.0690   -0.7580    2.8830 hc        1 MOL      0.060508
     52 H24         2.2830   -2.4950    2.8790 hc        1 MOL      0.060508
     53 N5          4.0460    0.6020    0.8790 n         1 MOL     -0.122511
     54 C17         4.2670    1.8790    0.1210 c3        1 MOL     -0.178050
     55 C18         3.0450    2.5140   -0.6700 c         1 MOL      0.635532
     56 O9          1.8730    2.2130   -0.3490 o         1 MOL     -0.598662
     57 H25         4.3260    0.6550    1.8540 hn        1 MOL      0.257150
     58 H26         5.1820    1.8240   -0.4730 h1        1 MOL      0.091203
     59 H27         4.5100    2.5510    0.9310 h1        1 MOL      0.091203
     60 N6          3.3490    3.5040   -1.5350 n         1 MOL     -0.507298
     61 C19         2.4400    4.2180   -2.3560 c3        1 MOL      0.323931
     62 C20         2.8900    5.7420   -2.5160 c         1 MOL      0.497821
     63 O10         4.0320    6.1380   -2.5510 o         1 MOL     -0.548833
     64 C21         2.3300    3.6590   -3.7310 c3        1 MOL     -0.447682
     65 C22         1.7540    2.2610   -3.6450 c         1 MOL      0.743858
     66 O11         0.6380    2.0750   -3.1180 o         1 MOL     -0.673124
     67 O12         2.3770    1.2780   -4.0690 o         1 MOL     -0.673124
     68 H28         4.3370    3.6150   -1.7070 hn        1 MOL      0.280442
     69 H29         1.4630    4.2790   -1.8630 h1        1 MOL      0.002497
     70 H30         3.3450    3.6700   -4.1220 hc        1 MOL      0.123475
     71 H31         1.7050    4.3040   -4.3510 hc        1 MOL      0.123475
     72 N7          1.9830    6.6430   -2.7900 n         1 MOL     -0.475934
     73 C23         0.5130    6.5700   -2.9290 c3        1 MOL      0.010258
     74 C24        -0.1220    6.0930   -1.6330 c         1 MOL      0.554001
     75 O13         0.3490    6.4200   -0.5370 o         1 MOL     -0.483892
     76 H32         2.4290    7.5080   -3.0470 hn        1 MOL      0.317875
     77 H33         0.2180    5.9400   -3.7740 h1        1 MOL      0.062466
     78 H34        -0.0000    7.5010   -3.1870 h1        1 MOL      0.062466
     79 N8         -1.2790    5.5150   -1.7250 n         1 MOL     -0.669110
     80 C25        -2.1310    5.1510   -0.5390 c3        1 MOL      0.193863
     81 C26        -1.4520    4.0500    0.2580 c         1 MOL      0.765503
     82 O14        -1.1990    2.9850   -0.2880 o         1 MOL     -0.681128
     83 C27        -3.5610    4.7450   -1.0100 c3        1 MOL      0.337310
     84 C28        -4.2620    5.8520   -1.7700 c3        1 MOL     -0.271083
     85 O15        -4.3710    4.4250    0.0510 oh        1 MOL     -0.645255
     86 H35        -1.7560    5.3050   -2.5890 hn        1 MOL      0.326796
     87 H36        -2.2700    6.0210    0.1010 h1        1 MOL      0.042331
     88 H37        -3.4510    3.8470   -1.6180 h1        1 MOL      0.033790
     89 H38        -4.9910    3.7680   -0.2750 ho        1 MOL      0.387287
     90 H39        -4.5590    6.6830   -1.1380 hc        1 MOL      0.070223
     91 H40        -3.6200    6.1700   -2.5930 hc        1 MOL      0.070223
     92 H41        -5.1250    5.4500   -2.3100 hc        1 MOL      0.070223
     93 N9         -1.3970    4.1410    1.6060 n         1 MOL     -0.731160
     94 C29        -0.7930    3.1430    2.5390 c3        1 MOL      0.121222
     95 C30        -1.1830    1.6400    2.3450 c         1 MOL      0.709362
     96 O16        -0.4550    0.9730    1.6220 o         1 MOL     -0.553606
     97 C31         0.7250    3.4970    2.6790 c3        1 MOL      0.097132
     98 C32         1.1340    5.0080    2.7900 c3        1 MOL      0.056984
     99 C33         1.3460    2.7720    3.8950 c3        1 MOL     -0.665936
    100 C34         2.5930    5.2380    2.2760 c3        1 MOL     -0.215429
    101 H42        -1.8140    4.9330    2.0770 hn        1 MOL      0.342935
    102 H43        -1.2250    3.3810    3.5110 h1        1 MOL      0.013216
    103 H44         1.2790    3.0410    1.8580 hc        1 MOL      0.128277
    104 H45         1.2510    5.1860    3.8570 hc        1 MOL     -0.005222
    105 H46         0.4080    5.6760    2.3210 hc        1 MOL     -0.005222
    106 H47         2.3500    3.1450    4.1250 hc        1 MOL      0.171942
    107 H48         0.6420    2.9160    4.7020 hc        1 MOL      0.171942
    108 H49         1.3680    1.6950    3.7020 hc        1 MOL      0.171942
    109 H50         2.6230    4.7680    1.2920 hc        1 MOL      0.055538
    110 H51         2.7300    6.3080    2.0580 hc        1 MOL      0.055538
    111 H52         3.2840    4.7970    2.9850 hc        1 MOL      0.055538
    112 N10        -2.3000    1.1860    2.9960 n         1 MOL     -0.729622
    113 C35        -2.7930   -0.2630    3.0540 c3        1 MOL     -0.062410
    114 C36        -4.2850   -0.4160    3.0500 c         1 MOL      0.533814
    115 O17        -4.7600   -1.5090    3.1880 o         1 MOL     -0.586270
    116 C37        -2.1640   -0.9020    4.3080 c3        1 MOL      0.458912
    117 C38        -2.5710   -0.3090    5.7270 c3        1 MOL     -0.243842
    118 O18        -0.7530   -0.8080    4.3150 oh        1 MOL     -0.578688
    119 H53        -2.7970    1.8760    3.5360 hn        1 MOL      0.373413
    120 H54        -2.4190   -0.8050    2.1860 h1        1 MOL      0.128992
    121 H55        -2.4120   -1.9630    4.2820 h1        1 MOL     -0.001355
    122 H56        -0.3780   -1.0650    3.4680 ho        1 MOL      0.314694
    123 H57        -2.3840   -1.1460    6.4090 hc        1 MOL      0.047618
    124 H58        -2.0030    0.5730    6.0200 hc        1 MOL      0.047618
    125 H59        -3.6270   -0.0360    5.6510 hc        1 MOL      0.047618
    126 N11        -5.0740    0.5710    2.7150 n         1 MOL     -0.191109
    127 C39        -6.5150    0.3980    2.3870 c3        1 MOL      0.012521
    128 C40        -6.7670   -0.3420    1.0760 c         1 MOL      0.486790
    129 O19        -7.2060    0.2540    0.1240 o         1 MOL     -0.502320
    130 C41        -7.3450    1.7150    2.6150 c3        1 MOL      0.219420
    131 C42        -7.5760    1.9940    4.1440 c3        1 MOL     -0.189338
    132 O20        -6.6810    2.8320    2.1250 oh        1 MOL     -0.597507
    133 H60        -4.6960    1.4920    2.8630 hn        1 MOL      0.201514
    134 H61        -6.9840   -0.2520    3.1280 h1        1 MOL      0.041856
    135 H62        -8.3340    1.6840    2.1460 h1        1 MOL      0.034902
    136 H63        -7.2870    3.5500    2.3360 ho        1 MOL      0.416385
    137 H64        -7.8520    3.0340    4.2910 hc        1 MOL      0.043067
    138 H65        -8.2590    1.2690    4.5950 hc        1 MOL      0.043067
    139 H66        -6.6070    1.9220    4.6260 hc        1 MOL      0.043067
    140 N12        -6.5430   -1.6220    1.0640 n         1 MOL     -0.564651
    141 C43        -6.6470   -2.5290   -0.1390 c3        1 MOL      0.197165
    142 C44        -5.3930   -2.2850   -1.0310 c         1 MOL      0.571341
    143 O21        -5.0240   -1.1370   -1.2960 o         1 MOL     -0.490285
    144 C45        -7.9940   -2.5700   -0.9350 c3        1 MOL     -0.486714
    145 C46        -9.3400   -2.6480   -0.1930 c3        1 MOL      0.068826
    146 C47       -10.5210   -2.8430   -1.0480 c3        1 MOL     -0.005300
    147 C48       -11.7990   -2.8420   -0.2260 c3        1 MOL     -0.104508
    148 N13       -13.0220   -3.1120   -0.9820 n4        1 MOL      0.041751
    149 H67        -6.2360   -2.0240    1.9400 hn        1 MOL      0.333857
    150 H68        -6.5510   -3.5310    0.2720 h1        1 MOL      0.061620
    151 H69        -8.0560   -3.4960   -1.5050 hc        1 MOL      0.143774
    152 H70        -7.9790   -1.7650   -1.6620 hc        1 MOL      0.143774
    153 H71        -9.4980   -1.6820    0.2890 hc        1 MOL      0.047901
    154 H72        -9.2400   -3.4240    0.5670 hc        1 MOL      0.047901
    155 H73       -10.4630   -3.7640   -1.6180 hc        1 MOL      0.049616
    156 H74       -10.5350   -1.9860   -1.7160 hc        1 MOL      0.049616
    157 H75       -11.9710   -1.8450    0.1590 hx        1 MOL      0.077802
    158 H76       -11.6270   -3.6220    0.5120 hx        1 MOL      0.077802
    159 H77       -13.2550   -2.3870   -1.6450 hn        1 MOL      0.151595
    160 H78       -12.9980   -3.9560   -1.5190 hn        1 MOL      0.151595
    161 H79       -13.8520   -3.1230   -0.3990 hn        1 MOL      0.151595
    162 N14        -4.6660   -3.3620   -1.4800 n         1 MOL     -0.621877
    163 C49        -3.3480   -3.1650   -2.1460 c3        1 MOL      0.211431
    164 C50        -2.2630   -2.6360   -1.2070 c         1 MOL      0.376001
    165 O22        -1.5770   -1.7120   -1.5810 o         1 MOL     -0.572274
    166 C51        -2.9250   -4.5010   -2.6920 c3        1 MOL      0.149449
    167 C52        -3.8040   -4.9370   -3.8820 c3        1 MOL     -0.250566
    168 C53        -3.3060   -6.2570   -4.4740 c         1 MOL      0.714124
    169 O23        -2.3750   -6.2480   -5.2930 o         1 MOL     -0.632877
    170 O24        -3.8450   -7.3070   -4.1150 o         1 MOL     -0.632877
    171 H80        -5.0540   -4.2810   -1.3700 hn        1 MOL      0.343737
    172 H81        -3.4260   -2.3960   -2.9130 h1        1 MOL      0.055072
    173 H82        -3.1410   -5.2230   -1.9170 hc        1 MOL      0.010073
    174 H83        -1.8490   -4.5740   -2.8770 hc        1 MOL      0.010073
    175 H84        -3.6430   -4.1780   -4.6560 hc        1 MOL      0.012061
    176 H85        -4.8410   -5.0540   -3.5980 hc        1 MOL      0.012061
    177 N15        -2.0900   -3.1410    0.0540 n         1 MOL     -0.233298
    178 C54        -2.6650   -4.3940    0.6910 c3        1 MOL     -0.069048
    179 H86        -3.7490   -4.3980    0.5690 h1        1 MOL      0.045915
    180 H87        -2.2430   -5.2750    0.2070 h1        1 MOL      0.045915
    181 H88        -2.4190   -4.4090    1.7530 h1        1 MOL      0.045915
    182 H89        -1.4300   -2.6410    0.6250 hn        1 MOL      0.249554
    183 Ca1        -0.2150    0.5630   -1.1520 Ca        1 MOL      1.798251
    184 O25        -2.0200    0.9410   -3.2000 oh        1 MOL     -0.898152
    185 H90        -2.0320    0.0790   -3.6130 ho        1 MOL      0.425327
    186 H91        -2.6380    1.4550   -3.7160 ho        1 MOL      0.425327
    187 O26         1.4210   -0.7630   -3.0560 oh        1 MOL     -0.898152
    188 H92         1.7230    0.0250   -3.5210 ho        1 MOL      0.425327
    189 H93         2.2250   -1.2530   -2.8800 ho        1 MOL      0.425327
    190 O27        -3.0190    0.7080   -0.5550 oh        1 MOL     -0.898152
    191 H94        -3.6810    0.1260   -0.9240 ho        1 MOL      0.425327
    192 H95        -3.5170    1.4590   -0.2230 ho        1 MOL      0.425327
@<TRIPOS>BOND
     1    1    2 1   
     2    1    4 1   
     3    1    5 1   
     4    1    6 1   
     5    2    3 2   
     6    2    7 1   
     7    7    8 1   
     8    7   15 1   
     9    8    9 1   
    10    8   11 1   
    11    8   16 1   
    12    9   10 2   
    13    9   19 1   
    14   11   12 1   
    15   11   17 1   
    16   11   18 1   
    17   12   13 1   
    18   12   14 1   
    19   19   20 1   
    20   19   28 1   
    21   20   21 1   
    22   20   23 1   
    23   20   29 1   
    24   21   22 2   
    25   21   41 1   
    26   23   24 1   
    27   23   30 1   
    28   23   31 1   
    29   24   25 1   
    30   24   32 1   
    31   24   33 1   
    32   25   26 1   
    33   25   34 1   
    34   25   35 1   
    35   26   27 1   
    36   26   36 1   
    37   26   37 1   
    38   27   38 1   
    39   27   39 1   
    40   27   40 1   
    41   41   42 1   
    42   41   49 1   
    43   42   43 1   
    44   42   45 1   
    45   42   50 1   
    46   43   44 2   
    47   43   53 1   
    48   45   46 1   
    49   45   51 1   
    50   45   52 1   
    51   46   47 1   
    52   46   48 1   
    53   53   54 1   
    54   53   57 1   
    55   54   55 1   
    56   54   58 1   
    57   54   59 1   
    58   55   56 2   
    59   55   60 1   
    60   60   61 1   
    61   60   68 1   
    62   61   62 1   
    63   61   64 1   
    64   61   69 1   
    65   62   63 2   
    66   62   72 1   
    67   64   65 1   
    68   64   70 1   
    69   64   71 1   
    70   65   66 1   
    71   65   67 1   
    72   72   73 1   
    73   72   76 1   
    74   73   74 1   
    75   73   77 1   
    76   73   78 1   
    77   74   75 2   
    78   74   79 1   
    79   79   80 1   
    80   79   86 1   
    81   80   81 1   
    82   80   83 1   
    83   80   87 1   
    84   81   82 2   
    85   81   93 1   
    86   83   84 1   
    87   83   85 1   
    88   83   88 1   
    89   84   90 1   
    90   84   91 1   
    91   84   92 1   
    92   85   89 1   
    93   93   94 1   
    94   93  101 1   
    95   94   95 1   
    96   94   97 1   
    97   94  102 1   
    98   95   96 2   
    99   95  112 1   
   100   97   98 1   
   101   97   99 1   
   102   97  103 1   
   103   98  100 1   
   104   98  104 1   
   105   98  105 1   
   106   99  106 1   
   107   99  107 1   
   108   99  108 1   
   109  100  109 1   
   110  100  110 1   
   111  100  111 1   
   112  112  113 1   
   113  112  119 1   
   114  113  114 1   
   115  113  116 1   
   116  113  120 1   
   117  114  115 2   
   118  114  126 1   
   119  116  117 1   
   120  116  118 1   
   121  116  121 1   
   122  117  123 1   
   123  117  124 1   
   124  117  125 1   
   125  118  122 1   
   126  126  127 1   
   127  126  133 1   
   128  127  128 1   
   129  127  130 1   
   130  127  134 1   
   131  128  129 2   
   132  128  140 1   
   133  130  131 1   
   134  130  132 1   
   135  130  135 1   
   136  131  137 1   
   137  131  138 1   
   138  131  139 1   
   139  132  136 1   
   140  140  141 1   
   141  140  149 1   
   142  141  142 1   
   143  141  144 1   
   144  141  150 1   
   145  142  143 2   
   146  142  162 1   
   147  144  145 1   
   148  144  151 1   
   149  144  152 1   
   150  145  146 1   
   151  145  153 1   
   152  145  154 1   
   153  146  147 1   
   154  146  155 1   
   155  146  156 1   
   156  147  148 1   
   157  147  157 1   
   158  147  158 1   
   159  148  159 1   
   160  148  160 1   
   161  148  161 1   
   162  162  163 1   
   163  162  171 1   
   164  163  164 1   
   165  163  166 1   
   166  163  172 1   
   167  164  165 2   
   168  164  177 1   
   169  166  167 1   
   170  166  173 1   
   171  166  174 1   
   172  167  168 1   
   173  167  175 1   
   174  167  176 1   
   175  168  169 1   
   176  168  170 1   
   177  177  178 1   
   178  177  182 1   
   179  178  179 1   
   180  178  180 1   
   181  178  181 1   
   182  184  185 1   
   183  184  186 1   
   184  187  188 1   
   185  187  189 1   
   186  190  191 1   
   187  190  192 1   
@<TRIPOS>SUBSTRUCTURE
     1 MOL         1 TEMP              0 ****  ****    0 ROOT
