@<TRIPOS>MOLECULE
MOL
  182   178     1     0     0
SMALL
resp


@<TRIPOS>ATOM
      1 C1          0.1990   -4.4280    5.5720 c3        1 MOL     -0.339026
      2 C2          0.4870   -4.1120    4.0790 c         1 MOL      0.734704
      3 O1         -0.3920   -4.2310    3.2210 o         1 MOL     -0.601340
      4 H1          1.0650   -4.1530    6.1740 hc        1 MOL      0.096745
      5 H2         -0.6690   -3.8590    5.9040 hc        1 MOL      0.096745
      6 H3          0.0010   -5.4940    5.6860 hc        1 MOL      0.096745
      7 N1          1.6900   -3.7800    3.7630 n         1 MOL     -0.550737
      8 C3          2.0080   -3.2210    2.4100 c3        1 MOL      0.250230
      9 C4          2.0340   -4.3760    1.3790 c         1 MOL      0.523572
     10 O2          2.3810   -5.4600    1.7120 o         1 MOL     -0.552605
     11 C5          3.2570   -2.3750    2.5980 c3        1 MOL     -0.133571
     12 C6          3.5070   -1.4420    1.3730 c         1 MOL      0.690182
     13 O3          3.9720   -0.3140    1.5180 o         1 MOL     -0.716386
     14 O4          3.3110   -1.7460    0.1650 o         1 MOL     -0.716386
     15 H4          2.3620   -3.8350    4.5150 hn        1 MOL      0.320833
     16 H5          1.2150   -2.5580    2.0450 h1        1 MOL     -0.331428
     17 H6          4.1120   -3.0310    2.7750 hc        1 MOL      0.060818
     18 H7          3.1130   -1.6490    3.3980 hc        1 MOL      0.060818
     19 N2          1.7150   -4.1070    0.0860 n         1 MOL     -0.081832
     20 C7          1.8030   -5.0680   -1.0130 c3        1 MOL     -0.075575
     21 C8          3.0250   -4.9810   -1.9690 c         1 MOL      0.594955
     22 O5          3.2970   -5.9180   -2.7300 o         1 MOL     -0.554422
     23 C9          0.4870   -5.1220   -1.7620 c3        1 MOL      0.052057
     24 C10        -0.5830   -5.8790   -0.9900 c3        1 MOL      0.000456
     25 C11        -2.0190   -6.0850   -1.4470 c3        1 MOL      0.055755
     26 C12        -2.7700   -7.0630   -0.5590 c3        1 MOL      0.117880
     27 N3         -4.1200   -7.2500   -1.0910 n4        1 MOL     -0.378147
     28 H8          1.5750   -3.1320   -0.1490 hn        1 MOL      0.150864
     29 H9          1.9540   -6.0390   -0.5480 h1        1 MOL      0.079695
     30 H10         0.7380   -5.6850   -2.6620 hc        1 MOL     -0.025255
     31 H11         0.1020   -4.1370   -2.0220 hc        1 MOL     -0.025255
     32 H12        -0.6970   -5.4230   -0.0130 hc        1 MOL      0.020422
     33 H13        -0.0700   -6.8110   -0.7590 hc        1 MOL      0.020422
     34 H14        -1.9540   -6.4650   -2.4650 hc        1 MOL     -0.001334
     35 H15        -2.5980   -5.1610   -1.4430 hc        1 MOL     -0.001334
     36 H16        -2.7760   -6.6770    0.4640 hx        1 MOL      0.043481
     37 H17        -2.1280   -7.9360   -0.5620 hx        1 MOL      0.043481
     38 H18        -4.6040   -7.8040   -0.4000 hn        1 MOL      0.288495
     39 H19        -4.6130   -6.3680   -1.0950 hn        1 MOL      0.288495
     40 H20        -4.1290   -7.8250   -1.9200 hn        1 MOL      0.288495
     41 N4          3.8110   -3.9200   -1.7550 n         1 MOL     -0.278487
     42 C13         5.0420   -3.6100   -2.5030 c3        1 MOL     -0.006701
     43 C14         6.2570   -3.1570   -1.6780 c         1 MOL      0.385957
     44 O6          7.3990   -3.1120   -2.2280 o         1 MOL     -0.504909
     45 C15         4.7920   -2.5640   -3.6690 c3        1 MOL     -0.259946
     46 C16         4.2510   -1.2880   -3.0680 c         1 MOL      0.754101
     47 O7          5.0020   -0.4290   -2.4860 o         1 MOL     -0.726425
     48 O8          3.0420   -1.0240   -2.9650 o         1 MOL     -0.726425
     49 H21         3.6090   -3.2630   -1.0140 hn        1 MOL     -0.034006
     50 H22         5.4120   -4.4360   -3.1080 h1        1 MOL      0.134097
     51 H23         4.0550   -3.0380   -4.3210 hc        1 MOL      0.095238
     52 H24         5.7010   -2.2480   -4.1880 hc        1 MOL      0.095238
     53 N5          6.0230   -2.8360   -0.3770 n         1 MOL     -0.183097
     54 C17         7.0750   -2.5290    0.6330 c3        1 MOL     -0.319393
     55 C18         7.5250   -1.0870    0.7220 c         1 MOL      0.595786
     56 O9          8.2980   -0.7230    1.5850 o         1 MOL     -0.570471
     57 H25         5.0870   -2.7990    0.0030 hn        1 MOL      0.264659
     58 H26         7.9740   -3.1120    0.4840 h1        1 MOL      0.156208
     59 H27         6.5330   -2.7850    1.5420 h1        1 MOL      0.156208
     60 N6          7.1490   -0.1310   -0.1690 n         1 MOL     -0.133876
     61 C19         7.6270    1.2160   -0.2840 c3        1 MOL      0.164469
     62 C20         6.3760    2.1450   -0.0640 c         1 MOL      0.434789
     63 O10         5.2500    1.7800   -0.3970 o         1 MOL     -0.386506
     64 C21         8.2820    1.4900   -1.6910 c3        1 MOL     -0.279744
     65 C22         9.4500    0.5760   -2.1720 c         1 MOL      0.656488
     66 N7          9.1670   -0.6260   -2.6490 n         1 MOL     -0.805093
     67 O11        10.6760    0.8680   -2.0720 o         1 MOL     -0.573865
     68 H28         6.6480   -0.4340   -0.9950 hn        1 MOL      0.060935
     69 H29         8.2040    1.5150    0.5940 h1        1 MOL      0.017370
     70 H30         8.7680    2.4750   -1.7630 hc        1 MOL      0.070625
     71 H31         7.4660    1.3190   -2.3960 hc        1 MOL      0.070625
     72 H32         8.2170   -0.9510   -2.7490 hn        1 MOL      0.388116
     73 H33         9.9550   -1.2210   -2.8830 hn        1 MOL      0.388116
     74 N8          6.6960    3.3880    0.3920 n         1 MOL     -0.416854
     75 C23         5.7140    4.5530    0.2690 c3        1 MOL     -0.237551
     76 C24         4.4310    4.5570    1.1300 c         1 MOL      0.640801
     77 O12         4.4500    4.1770    2.3050 o         1 MOL     -0.518818
     78 H34         7.6150    3.7410    0.6000 hn        1 MOL      0.347242
     79 H35         5.3870    4.5980   -0.7770 h1        1 MOL      0.111334
     80 H36         6.2670    5.4100    0.6570 h1        1 MOL      0.111334
     81 N9          3.2700    4.8880    0.6070 n         1 MOL     -0.467606
     82 C25         1.9550    4.7220    1.2670 c3        1 MOL     -0.093862
     83 C26         1.5560    3.2850    1.4250 c         1 MOL      0.689742
     84 O13         1.9330    2.5510    0.5260 o         1 MOL     -0.562000
     85 C27         0.8800    5.3850    0.3770 c3        1 MOL     -0.013794
     86 C28         1.0610    6.8430   -0.0960 ca        1 MOL      0.096672
     87 C29         1.2950    7.8720    0.8310 ca        1 MOL     -0.212831
     88 C30         0.7560    7.0750   -1.4740 ca        1 MOL     -0.212831
     89 C31         0.9650    9.1440    0.4220 ca        1 MOL     -0.198939
     90 C32         0.4730    8.4010   -1.8120 ca        1 MOL     -0.198939
     91 C33         0.5030    9.4350   -0.8590 ca        1 MOL      0.305113
     92 O14         0.2390   10.6660   -1.3030 oh        1 MOL     -0.473339
     93 H37         3.2330    5.3570   -0.2820 hn        1 MOL      0.241833
     94 H38         1.9210    5.2390    2.2230 h1        1 MOL      0.080181
     95 H39        -0.0610    5.2980    0.9070 hc        1 MOL      0.021219
     96 H40         0.8180    4.6710   -0.4330 hc        1 MOL      0.021219
     97 H41         1.5900    7.6650    1.8480 ha        1 MOL      0.155720
     98 H42         0.6720    6.3140   -2.2290 ha        1 MOL      0.155720
     99 H43         1.2720    9.9410    1.0790 ha        1 MOL      0.136624
    100 H44         0.2680    8.6340   -2.8450 ha        1 MOL      0.136624
    101 H45         0.3970   11.3920   -0.6930 ho        1 MOL      0.380666
    102 N10         0.8470    2.8830    2.5680 n         1 MOL     -0.599484
    103 C34         0.3480    1.4920    2.9220 c3        1 MOL      0.006477
    104 C35        -0.0650    0.6050    1.6570 c         1 MOL      0.279658
    105 O15         0.8060    0.2190    0.8710 o         1 MOL     -0.299875
    106 C36         1.2170    0.8400    3.9700 c3        1 MOL      0.325303
    107 C37         0.6650   -0.5660    4.4100 c3        1 MOL     -0.039080
    108 C38         1.5940    1.6160    5.2390 c3        1 MOL     -0.218609
    109 C39        -0.6600   -0.6190    5.2300 c3        1 MOL     -0.384687
    110 H46         0.6420    3.6520    3.1870 hn        1 MOL      0.329573
    111 H47        -0.6250    1.6200    3.3940 h1        1 MOL      0.049554
    112 H48         2.2030    0.6550    3.5480 hc        1 MOL      0.019877
    113 H49         1.5080   -1.1420    4.7960 hc        1 MOL      0.033797
    114 H50         0.4220   -1.1180    3.5020 hc        1 MOL      0.033797
    115 H51         2.1820    2.4770    4.9260 hc        1 MOL      0.048491
    116 H52         0.7010    1.9560    5.7690 hc        1 MOL      0.048491
    117 H53         2.2030    1.0320    5.9240 hc        1 MOL      0.048491
    118 H54        -0.9430   -1.6710    5.2860 hc        1 MOL      0.101457
    119 H55        -0.4960   -0.1780    6.2150 hc        1 MOL      0.101457
    120 H56        -1.4810   -0.0930    4.7590 hc        1 MOL      0.101457
    121 N11        -1.3630    0.2790    1.5180 n         1 MOL     -0.326690
    122 C40        -1.8270   -0.6620    0.5180 c3        1 MOL     -0.016873
    123 C41        -3.2300   -0.5410   -0.0080 c         1 MOL      0.395632
    124 O16        -3.7430   -1.5040   -0.6220 o         1 MOL     -0.530428
    125 C42        -1.6200   -2.0110    1.0800 c3        1 MOL      0.578210
    126 O17        -2.0760   -2.2760    2.3320 oh        1 MOL     -0.667224
    127 H57        -2.0440    0.5350    2.2140 hn        1 MOL      0.304622
    128 H58        -1.1720   -0.5750   -0.3450 h1        1 MOL      0.089546
    129 H59        -0.5260   -2.0670    1.0370 h1        1 MOL     -0.105653
    130 H60        -1.8150   -2.8120    0.3710 h1        1 MOL     -0.105653
    131 H61        -1.6790   -3.1150    2.5860 ho        1 MOL      0.410684
    132 N12        -4.0160    0.4410    0.3440 n         1 MOL     -0.281830
    133 C43        -5.3370    0.6220   -0.2930 c3        1 MOL     -0.103069
    134 C44        -5.3070    0.7490   -1.8300 c         1 MOL      0.622335
    135 O18        -4.2790    1.1680   -2.4400 o         1 MOL     -0.562402
    136 C45        -6.0080    1.7770    0.5540 c3        1 MOL     -0.114628
    137 H62        -3.6020    1.1690    0.9030 hn        1 MOL      0.203104
    138 H63        -5.9600   -0.2440   -0.0850 h1        1 MOL      0.152139
    139 H64        -7.0940    1.6260    0.4720 hc        1 MOL      0.055807
    140 H65        -5.8580    1.6380    1.6280 hc        1 MOL      0.055807
    141 H66        -5.8190    2.8460    0.3990 hc        1 MOL      0.055807
    142 N13        -6.4100    0.4500   -2.5210 n         1 MOL     -0.657465
    143 C46        -7.7170   -0.1540   -2.0850 c3        1 MOL      0.639720
    144 C47        -8.9060    0.6300   -2.6520 c         1 MOL      0.232646
    145 O19        -8.8540    1.1040   -3.7750 o         1 MOL     -0.518134
    146 C48        -7.7350   -1.6520   -2.3730 c3        1 MOL     -0.505229
    147 H67        -6.3090    0.4830   -3.5280 hn        1 MOL      0.331553
    148 H68        -7.7800    0.0240   -1.0110 h1        1 MOL     -0.109016
    149 H69        -8.7620   -2.0000   -2.2260 hc        1 MOL      0.129948
    150 H70        -7.6200   -1.7600   -3.4580 hc        1 MOL      0.129948
    151 H71        -6.9240   -2.1210   -1.8330 hc        1 MOL      0.129948
    152 N14        -9.9900    0.8140   -1.9360 n         1 MOL     -0.258095
    153 C49       -10.3370    0.4160   -0.5720 c3        1 MOL     -0.004156
    154 C50        -9.7870    1.3930    0.4640 c         1 MOL      0.448168
    155 O20        -9.6360    1.0080    1.6140 o         1 MOL     -0.510955
    156 C51       -11.8640    0.4240   -0.5080 c3        1 MOL      0.020836
    157 C52       -12.4330   -0.8540    0.1330 c3        1 MOL     -0.056882
    158 C53       -13.9600   -1.0190    0.0440 c         1 MOL      0.660390
    159 O21       -14.7030   -0.0690   -0.4200 o         1 MOL     -0.654512
    160 O22       -14.4680   -1.9550    0.6560 o         1 MOL     -0.654512
    161 H72       -10.6820    1.3500   -2.4400 hn        1 MOL      0.281398
    162 H73       -10.1000   -0.6310   -0.3790 h1        1 MOL      0.013846
    163 H74       -12.3210    0.6330   -1.4690 hc        1 MOL     -0.001609
    164 H75       -12.2370    1.2160    0.1460 hc        1 MOL     -0.001609
    165 H76       -12.0810   -1.0040    1.1630 hc        1 MOL      0.013746
    166 H77       -12.0790   -1.6600   -0.5140 hc        1 MOL      0.013746
    167 N15        -9.7030    2.6910    0.1780 n         1 MOL     -0.282473
    168 C54        -9.0020    3.7180    1.0200 c3        1 MOL     -0.055977
    169 H78        -7.9240    3.5820    0.9340 h1        1 MOL      0.068011
    170 H79        -9.2700    4.7160    0.6740 h1        1 MOL      0.068011
    171 H80        -9.3010    3.6010    2.0610 h1        1 MOL      0.068011
    172 H81       -10.1560    2.9510   -0.6800 hn        1 MOL      0.207224
    173 Ca1         2.8020    0.4620   -0.8600 Ca        1 MOL      1.696079
    174 O23         0.6300   -1.7750   -1.4900 oh        1 MOL     -0.817514
    175 H82        -0.2670   -1.8190   -1.8200 ho        1 MOL      0.409678
    176 H83         1.1760   -2.0230   -2.2380 ho        1 MOL      0.409678
    177 O24         3.2220    2.7580   -2.3600 oh        1 MOL     -0.817514
    178 H84         2.5600    3.3770   -2.6640 ho        1 MOL      0.409678
    179 H85         4.0630    3.2010   -2.5070 ho        1 MOL      0.409678
    180 O25         0.7290    1.1350   -2.5200 oh        1 MOL     -0.817514
    181 H86         0.7330    1.2590   -3.4770 ho        1 MOL      0.409678
    182 H87        -0.1570    1.3990   -2.2520 ho        1 MOL      0.409678
@<TRIPOS>BOND
     1    1    2 1   
     2    1    4 1   
     3    1    5 1   
     4    1    6 1   
     5    2    3 2   
     6    2    7 1   
     7    7    8 1   
     8    7   15 1   
     9    8    9 1   
    10    8   11 1   
    11    8   16 1   
    12    9   10 2   
    13    9   19 1   
    14   11   12 1   
    15   11   17 1   
    16   11   18 1   
    17   12   13 1   
    18   12   14 1   
    19   19   20 1   
    20   19   28 1   
    21   20   21 1   
    22   20   23 1   
    23   20   29 1   
    24   21   22 2   
    25   21   41 1   
    26   23   24 1   
    27   23   30 1   
    28   23   31 1   
    29   24   25 1   
    30   24   32 1   
    31   24   33 1   
    32   25   26 1   
    33   25   34 1   
    34   25   35 1   
    35   26   27 1   
    36   26   36 1   
    37   26   37 1   
    38   27   38 1   
    39   27   39 1   
    40   27   40 1   
    41   41   42 1   
    42   41   49 1   
    43   42   43 1   
    44   42   45 1   
    45   42   50 1   
    46   43   44 2   
    47   43   53 1   
    48   45   46 1   
    49   45   51 1   
    50   45   52 1   
    51   46   47 1   
    52   46   48 1   
    53   53   54 1   
    54   53   57 1   
    55   54   55 1   
    56   54   58 1   
    57   54   59 1   
    58   55   56 2   
    59   55   60 1   
    60   60   61 1   
    61   60   68 1   
    62   61   62 1   
    63   61   64 1   
    64   61   69 1   
    65   62   63 2   
    66   62   74 1   
    67   64   65 1   
    68   64   70 1   
    69   64   71 1   
    70   65   66 1   
    71   65   67 2   
    72   66   72 1   
    73   66   73 1   
    74   74   75 1   
    75   74   78 1   
    76   75   76 1   
    77   75   79 1   
    78   75   80 1   
    79   76   77 2   
    80   76   81 1   
    81   81   82 1   
    82   81   93 1   
    83   82   83 1   
    84   82   85 1   
    85   82   94 1   
    86   83   84 2   
    87   83  102 1   
    88   85   86 1   
    89   85   95 1   
    90   85   96 1   
    91   86   87 ar  
    92   86   88 ar  
    93   87   89 ar  
    94   87   97 1   
    95   88   90 ar  
    96   88   98 1   
    97   89   91 ar  
    98   89   99 1   
    99   90   91 ar  
   100   90  100 1   
   101   91   92 1   
   102   92  101 1   
   103  102  103 1   
   104  102  110 1   
   105  103  104 1   
   106  103  106 1   
   107  103  111 1   
   108  104  105 2   
   109  104  121 1   
   110  106  107 1   
   111  106  108 1   
   112  106  112 1   
   113  107  109 1   
   114  107  113 1   
   115  107  114 1   
   116  108  115 1   
   117  108  116 1   
   118  108  117 1   
   119  109  118 1   
   120  109  119 1   
   121  109  120 1   
   122  121  122 1   
   123  121  127 1   
   124  122  123 1   
   125  122  125 1   
   126  122  128 1   
   127  123  124 2   
   128  123  132 1   
   129  125  126 1   
   130  125  129 1   
   131  125  130 1   
   132  126  131 1   
   133  132  133 1   
   134  132  137 1   
   135  133  134 1   
   136  133  136 1   
   137  133  138 1   
   138  134  135 2   
   139  134  142 1   
   140  136  139 1   
   141  136  140 1   
   142  136  141 1   
   143  142  143 1   
   144  142  147 1   
   145  143  144 1   
   146  143  146 1   
   147  143  148 1   
   148  144  145 2   
   149  144  152 1   
   150  146  149 1   
   151  146  150 1   
   152  146  151 1   
   153  152  153 1   
   154  152  161 1   
   155  153  154 1   
   156  153  156 1   
   157  153  162 1   
   158  154  155 2   
   159  154  167 1   
   160  156  157 1   
   161  156  163 1   
   162  156  164 1   
   163  157  158 1   
   164  157  165 1   
   165  157  166 1   
   166  158  159 1   
   167  158  160 1   
   168  167  168 1   
   169  167  172 1   
   170  168  169 1   
   171  168  170 1   
   172  168  171 1   
   173  174  175 1   
   174  174  176 1   
   175  177  178 1   
   176  177  179 1   
   177  180  181 1   
   178  180  182 1   
@<TRIPOS>SUBSTRUCTURE
     1 MOL         1 TEMP              0 ****  ****    0 ROOT
