@<TRIPOS>MOLECULE
MOL
  181   177     1     0     0
SMALL
resp


@<TRIPOS>ATOM
      1 C1          0.2000    6.5120   -1.7470 c3        1 MOL     -0.346426
      2 C2          1.6260    6.3400   -1.3000 c         1 MOL      0.605418
      3 O1          1.9760    6.6190   -0.1120 o         1 MOL     -0.562365
      4 H1          0.0140    5.8810   -2.6160 hc        1 MOL      0.088866
      5 H2         -0.4730    6.2250   -0.9390 hc        1 MOL      0.088866
      6 H3          0.0260    7.5540   -2.0120 hc        1 MOL      0.088866
      7 N1          2.5230    5.8480   -2.1740 n         1 MOL     -0.523899
      8 C3          3.8530    5.4750   -1.8460 c3        1 MOL      0.189550
      9 C4          3.8910    4.3930   -0.7770 c         1 MOL      0.449412
     10 O2          3.7180    3.2120   -0.9470 o         1 MOL     -0.527560
     11 C5          4.5690    5.1040   -3.1010 c3        1 MOL     -0.435885
     12 C6          6.0240    4.7310   -2.8540 c         1 MOL      0.810465
     13 O3          6.6820    5.1460   -1.8680 o         1 MOL     -0.755931
     14 O4          6.6180    4.0580   -3.7550 o         1 MOL     -0.755931
     15 H4          2.1360    5.6000   -3.0730 hn        1 MOL      0.297382
     16 H5          4.1540    6.4070   -1.3710 h1        1 MOL      0.061622
     17 H6          4.5430    5.9010   -3.8500 hc        1 MOL      0.088812
     18 H7          4.1280    4.2310   -3.5780 hc        1 MOL      0.088812
     19 N2          4.3790    4.8450    0.3760 n         1 MOL     -0.363196
     20 C7          4.5430    4.0060    1.5480 c3        1 MOL      0.588431
     21 C8          3.1220    3.7150    2.2110 c         1 MOL      0.324766
     22 O5          2.2330    4.5940    2.2420 o         1 MOL     -0.548898
     23 C9          5.4110    4.7350    2.5010 c3        1 MOL     -0.467419
     24 H8          4.6220    5.8060    0.5580 hn        1 MOL      0.225685
     25 H9          4.9810    3.0450    1.3010 h1        1 MOL     -0.054788
     26 H10         6.3880    4.7900    2.0180 hc        1 MOL      0.105729
     27 H11         5.0160    5.7000    2.8190 hc        1 MOL      0.105729
     28 H12         5.5630    4.2330    3.4650 hc        1 MOL      0.105729
     29 N3          2.9230    2.6310    2.9510 n         1 MOL     -0.353254
     30 C10         3.9090    1.6850    3.3850 c3        1 MOL      0.135241
     31 C11         4.2920    0.5710    2.3900 c         1 MOL      0.500890
     32 O6          3.5970    0.3920    1.3450 o         1 MOL     -0.479461
     33 C12         3.4300    1.0750    4.7160 c3        1 MOL     -0.140361
     34 C13         2.2700    0.0560    4.6350 c         1 MOL      0.621419
     35 O7          1.5510    0.0400    3.6030 o         1 MOL     -0.634904
     36 O8          2.0620   -0.6570    5.5720 o         1 MOL     -0.634904
     37 H13         1.9620    2.4140    3.2050 hn        1 MOL      0.267121
     38 H14         4.8120    2.1610    3.7660 h1        1 MOL     -0.019568
     39 H15         3.2030    1.8880    5.3990 hc        1 MOL      0.017795
     40 H16         4.2460    0.4980    5.1540 hc        1 MOL      0.017795
     41 N4          5.5140    0.0080    2.5830 n         1 MOL     -0.587649
     42 C14         6.1230   -0.9530    1.6060 c3        1 MOL      0.102559
     43 C15         6.6780   -0.2750    0.3840 c         1 MOL      0.479101
     44 O9          6.7720    0.9440    0.2810 o         1 MOL     -0.455492
     45 H17         5.9700    0.0950    3.4820 hn        1 MOL      0.342590
     46 H18         5.3390   -1.6440    1.3150 h1        1 MOL      0.032091
     47 H19         6.9170   -1.5250    2.0940 h1        1 MOL      0.032091
     48 N5          6.9560   -1.0610   -0.6430 n         1 MOL     -0.426677
     49 C16         6.9660   -2.5780   -0.7880 c3        1 MOL      0.090348
     50 C17         6.0080   -3.1030   -1.9150 c         1 MOL      0.584574
     51 O10         5.9790   -4.2690   -2.2260 o         1 MOL     -0.523874
     52 C18         8.3750   -3.1690   -0.7500 c3        1 MOL     -0.297678
     53 C19         9.1610   -2.7920    0.5580 c         1 MOL      0.651007
     54 N6          8.6290   -3.1980    1.6490 n         1 MOL     -0.722213
     55 O11        10.1240   -2.0060    0.5630 o         1 MOL     -0.544228
     56 H20         7.4360   -0.5410   -1.3600 hn        1 MOL      0.297517
     57 H21         6.4810   -2.9570    0.1180 h1        1 MOL      0.034814
     58 H22         8.9430   -2.7990   -1.6110 hc        1 MOL      0.087873
     59 H23         8.4620   -4.2480   -0.6970 hc        1 MOL      0.087873
     60 H24         7.7980   -3.7680    1.6160 hn        1 MOL      0.350423
     61 H25         9.1060   -3.0460    2.5290 hn        1 MOL      0.350423
     62 N7          5.2800   -2.0820   -2.4880 n         1 MOL     -0.326740
     63 C20         4.4650   -2.2310   -3.6670 c3        1 MOL     -0.333801
     64 C21         3.1580   -2.9090   -3.4860 c         1 MOL      0.499791
     65 O12         2.4460   -3.0620   -4.4710 o         1 MOL     -0.561393
     66 H26         5.5590   -1.1700   -2.1460 hn        1 MOL      0.247570
     67 H27         5.0560   -2.8220   -4.3680 h1        1 MOL      0.171475
     68 H28         4.2660   -1.2560   -4.1150 h1        1 MOL      0.171475
     69 N8          2.8360   -3.3290   -2.2370 n         1 MOL      0.137959
     70 C22         1.7720   -4.2530   -1.9340 c3        1 MOL     -0.479602
     71 C23         0.5750   -3.6650   -1.2680 c         1 MOL      0.652921
     72 O13         0.7620   -2.8860   -0.4180 o         1 MOL     -0.486323
     73 C24         2.2460   -5.4970   -1.1280 c3        1 MOL      0.507556
     74 C25         2.9950   -6.5900   -1.8790 c3        1 MOL     -0.408852
     75 O14         3.0410   -5.0990   -0.0250 oh        1 MOL     -0.651214
     76 H29         3.5340   -3.0460   -1.5720 hn        1 MOL      0.065774
     77 H30         1.4390   -4.6960   -2.8750 h1        1 MOL      0.102110
     78 H31         1.3270   -5.9880   -0.7930 h1        1 MOL     -0.013729
     79 H32         2.5900   -5.4380    0.7500 ho        1 MOL      0.417593
     80 H33         3.0140   -7.5130   -1.3090 hc        1 MOL      0.103049
     81 H34         2.4940   -6.8990   -2.7940 hc        1 MOL      0.103049
     82 H35         3.9450   -6.1920   -2.2320 hc        1 MOL      0.103049
     83 N9         -0.6180   -4.1640   -1.5480 n         1 MOL     -0.385606
     84 C26        -1.9260   -3.5210   -1.1500 c3        1 MOL     -0.216028
     85 C27        -2.3480   -3.6610    0.3140 c         1 MOL      0.508473
     86 O15        -2.3740   -4.8150    0.7710 o         1 MOL     -0.551264
     87 C28        -3.0970   -3.8360   -2.1780 c3        1 MOL      0.252770
     88 C29        -4.4590   -3.0870   -1.9360 c3        1 MOL      0.098180
     89 C30        -2.7670   -3.6950   -3.6770 c3        1 MOL     -0.383738
     90 C31        -5.6230   -3.6330   -2.8050 c3        1 MOL     -0.180064
     91 H36        -0.6630   -4.9590   -2.1590 hn        1 MOL      0.290440
     92 H37        -1.7870   -2.4380   -1.2570 h1        1 MOL      0.117037
     93 H38        -3.2260   -4.9050   -2.0380 hc        1 MOL     -0.011890
     94 H39        -4.2660   -2.0310   -2.1250 hc        1 MOL     -0.010886
     95 H40        -4.8310   -3.3280   -0.9430 hc        1 MOL     -0.010886
     96 H41        -1.8370   -4.1910   -3.9390 hc        1 MOL      0.089936
     97 H42        -3.5250   -4.2260   -4.2430 hc        1 MOL      0.089936
     98 H43        -2.8530   -2.6300   -3.9140 hc        1 MOL      0.089936
     99 H44        -5.7310   -3.0470   -3.7140 hc        1 MOL      0.027071
    100 H45        -5.4050   -4.6520   -3.1040 hc        1 MOL      0.027071
    101 H46        -6.4990   -3.4560   -2.1950 hc        1 MOL      0.027071
    102 N10        -2.8410   -2.6000    0.9680 n         1 MOL     -0.196174
    103 C32        -3.3740   -2.6620    2.3320 c3        1 MOL      0.046322
    104 C33        -4.8310   -2.0800    2.4120 c         1 MOL      0.321679
    105 O16        -5.6020   -2.5610    3.2320 o         1 MOL     -0.512410
    106 C34        -2.4630   -1.9890    3.3670 c3        1 MOL      0.083105
    107 C35        -1.1030   -2.6110    3.3530 c         1 MOL      0.646513
    108 O17        -0.9090   -3.5710    4.1440 o         1 MOL     -0.701012
    109 O18        -0.3050   -2.2140    2.5050 o         1 MOL     -0.701012
    110 H47        -2.5310   -1.6940    0.6630 hn        1 MOL      0.110592
    111 H48        -3.4640   -3.6820    2.7130 h1        1 MOL      0.080270
    112 H49        -2.9070   -2.2300    4.3320 hc        1 MOL     -0.026369
    113 H50        -2.4170   -0.9030    3.2250 hc        1 MOL     -0.026369
    114 N11        -5.1290   -1.1450    1.5400 n         1 MOL     -0.396349
    115 C36        -6.4040   -0.3980    1.4850 c3        1 MOL      0.346753
    116 C37        -6.3210    0.9610    0.7510 c         1 MOL      0.111596
    117 O19        -6.9030    1.1570   -0.2720 o         1 MOL     -0.343079
    118 C38        -7.4360   -1.3910    0.8720 c3        1 MOL     -0.345374
    119 C39        -8.8300   -0.8220    0.6810 ca        1 MOL      0.179775
    120 C40        -9.5240   -0.3950    1.8170 ca        1 MOL     -0.176008
    121 C41        -9.5270   -1.0980   -0.4900 ca        1 MOL     -0.176008
    122 C42       -10.8740   -0.0160    1.7180 ca        1 MOL     -0.126296
    123 C43       -10.8220   -0.6440   -0.6830 ca        1 MOL     -0.126296
    124 C44       -11.4620   -0.0280    0.4170 ca        1 MOL     -0.125687
    125 H51        -4.4000   -0.8810    0.8980 hn        1 MOL      0.246076
    126 H52        -6.7540   -0.2820    2.5180 h1        1 MOL      0.014426
    127 H53        -7.4630   -2.3300    1.4180 hc        1 MOL      0.134206
    128 H54        -7.0770   -1.5390   -0.1550 hc        1 MOL      0.134206
    129 H55        -9.0370   -0.4270    2.7820 ha        1 MOL      0.119443
    130 H56        -9.0170   -1.5730   -1.3200 ha        1 MOL      0.119443
    131 H57       -11.4290    0.2110    2.6170 ha        1 MOL      0.110079
    132 H58       -11.4020   -0.8100   -1.5870 ha        1 MOL      0.110079
    133 H59       -12.4950    0.2740    0.3150 ha        1 MOL      0.087581
    134 N12        -5.4590    1.8640    1.3610 n         1 MOL      0.054783
    135 C45        -5.3770    3.2210    0.8800 c3        1 MOL      0.004495
    136 C46        -5.0500    3.4230   -0.6310 c         1 MOL      0.113713
    137 O20        -5.4670    4.3900   -1.3560 o         1 MOL     -0.442719
    138 C47        -4.2580    3.8910    1.6970 c3        1 MOL      0.075338
    139 C48        -4.3670    3.1450    2.9980 c3        1 MOL     -0.286587
    140 C49        -4.7710    1.7220    2.6180 c3        1 MOL     -0.087320
    141 H60        -6.3160    3.6550    1.2480 h1        1 MOL      0.064553
    142 H61        -3.3400    3.5830    1.2120 hc        1 MOL      0.027233
    143 H62        -4.5340    4.9480    1.7590 hc        1 MOL      0.027233
    144 H63        -3.3980    3.1810    3.4910 hc        1 MOL      0.097158
    145 H64        -5.2060    3.5620    3.5480 hc        1 MOL      0.097158
    146 H65        -3.8360    1.2190    2.3790 h1        1 MOL      0.091020
    147 H66        -5.3480    1.2710    3.4300 h1        1 MOL      0.091020
    148 N13        -4.2190    2.5450   -1.1510 n         1 MOL     -0.068318
    149 C50        -4.0520    2.1880   -2.5530 c3        1 MOL     -0.087593
    150 C51        -5.3060    2.4780   -3.3920 c         1 MOL      0.501562
    151 O21        -5.2910    3.4310   -4.2060 o         1 MOL     -0.545503
    152 C52        -3.7520    0.7160   -2.6880 c3        1 MOL      0.027145
    153 C53        -2.3310    0.2320   -2.2960 c3        1 MOL     -0.233591
    154 C54        -2.0870    0.1420   -0.7710 c         1 MOL      0.492085
    155 O22        -0.9500   -0.1760   -0.3640 o         1 MOL     -0.594356
    156 O23        -2.9490    0.3120    0.0930 o         1 MOL     -0.594356
    157 H67        -3.8000    1.8970   -0.4930 hn        1 MOL      0.233661
    158 H68        -3.2340    2.7730   -2.9980 h1        1 MOL      0.077714
    159 H69        -3.8760    0.4970   -3.7460 hc        1 MOL     -0.011807
    160 H70        -4.4000    0.1000   -2.0590 hc        1 MOL     -0.011807
    161 H71        -1.6000    0.9190   -2.7380 hc        1 MOL      0.093414
    162 H72        -2.3000   -0.7910   -2.6640 hc        1 MOL      0.093414
    163 N14        -6.4000    1.7530   -3.1690 n         1 MOL     -0.191575
    164 C55        -7.6360    1.7490   -3.9460 c3        1 MOL     -0.258611
    165 H73        -7.4700    1.2300   -4.8900 h1        1 MOL      0.102477
    166 H74        -8.4180    1.2380   -3.3830 h1        1 MOL      0.102477
    167 H75        -7.9430    2.7760   -4.1450 h1        1 MOL      0.102477
    168 H76        -6.4230    1.2250   -2.3130 hn        1 MOL      0.194959
    169 Ca1         1.1660   -0.6520    1.0970 Ca        1 MOL      1.643755
    170 O24         3.0410   -2.6800    1.2580 oh        1 MOL     -0.874092
    171 H77         3.5590   -3.0560    1.9780 ho        1 MOL      0.419196
    172 H78         3.0520   -3.3530    0.5790 ho        1 MOL      0.419196
    173 O25         2.2070   -0.5970   -1.4810 oh        1 MOL     -0.874092
    174 H79         3.1210   -0.3290   -1.4630 ho        1 MOL      0.419196
    175 H80         1.9270   -0.4620   -2.3810 ho        1 MOL      0.419196
    176 O26         1.3410    1.9750    0.4030 oh        1 MOL     -0.874092
    177 H81         0.6800    2.6480    0.5850 ho        1 MOL      0.419196
    178 H82         2.0920    2.4610    0.0780 ho        1 MOL      0.419196
    179 O27        -0.8410    1.0900    2.0140 oh        1 MOL     -0.874092
    180 H83        -1.5350    1.0360    1.3490 ho        1 MOL      0.419196
    181 H84        -0.7690    2.0280    2.2100 ho        1 MOL      0.419196
@<TRIPOS>BOND
     1    1    2 1   
     2    1    4 1   
     3    1    5 1   
     4    1    6 1   
     5    2    3 2   
     6    2    7 1   
     7    7    8 1   
     8    7   15 1   
     9    8    9 1   
    10    8   11 1   
    11    8   16 1   
    12    9   10 2   
    13    9   19 1   
    14   11   12 1   
    15   11   17 1   
    16   11   18 1   
    17   12   13 1   
    18   12   14 1   
    19   19   20 1   
    20   19   24 1   
    21   20   21 1   
    22   20   23 1   
    23   20   25 1   
    24   21   22 2   
    25   21   29 1   
    26   23   26 1   
    27   23   27 1   
    28   23   28 1   
    29   29   30 1   
    30   29   37 1   
    31   30   31 1   
    32   30   33 1   
    33   30   38 1   
    34   31   32 2   
    35   31   41 1   
    36   33   34 1   
    37   33   39 1   
    38   33   40 1   
    39   34   35 1   
    40   34   36 1   
    41   41   42 1   
    42   41   45 1   
    43   42   43 1   
    44   42   46 1   
    45   42   47 1   
    46   43   44 2   
    47   43   48 1   
    48   48   49 1   
    49   48   56 1   
    50   49   50 1   
    51   49   52 1   
    52   49   57 1   
    53   50   51 2   
    54   50   62 1   
    55   52   53 1   
    56   52   58 1   
    57   52   59 1   
    58   53   54 1   
    59   53   55 2   
    60   54   60 1   
    61   54   61 1   
    62   62   63 1   
    63   62   66 1   
    64   63   64 1   
    65   63   67 1   
    66   63   68 1   
    67   64   65 2   
    68   64   69 1   
    69   69   70 1   
    70   69   76 1   
    71   70   71 1   
    72   70   73 1   
    73   70   77 1   
    74   71   72 2   
    75   71   83 1   
    76   73   74 1   
    77   73   75 1   
    78   73   78 1   
    79   74   80 1   
    80   74   81 1   
    81   74   82 1   
    82   75   79 1   
    83   83   84 1   
    84   83   91 1   
    85   84   85 1   
    86   84   87 1   
    87   84   92 1   
    88   85   86 2   
    89   85  102 1   
    90   87   88 1   
    91   87   89 1   
    92   87   93 1   
    93   88   90 1   
    94   88   94 1   
    95   88   95 1   
    96   89   96 1   
    97   89   97 1   
    98   89   98 1   
    99   90   99 1   
   100   90  100 1   
   101   90  101 1   
   102  102  103 1   
   103  102  110 1   
   104  103  104 1   
   105  103  106 1   
   106  103  111 1   
   107  104  105 2   
   108  104  114 1   
   109  106  107 1   
   110  106  112 1   
   111  106  113 1   
   112  107  108 1   
   113  107  109 1   
   114  114  115 1   
   115  114  125 1   
   116  115  116 1   
   117  115  118 1   
   118  115  126 1   
   119  116  117 2   
   120  116  134 1   
   121  118  119 1   
   122  118  127 1   
   123  118  128 1   
   124  119  120 ar  
   125  119  121 ar  
   126  120  122 ar  
   127  120  129 1   
   128  121  123 ar  
   129  121  130 1   
   130  122  124 ar  
   131  122  131 1   
   132  123  124 ar  
   133  123  132 1   
   134  124  133 1   
   135  134  135 1   
   136  134  140 1   
   137  135  136 1   
   138  135  138 1   
   139  135  141 1   
   140  136  137 2   
   141  136  148 1   
   142  138  139 1   
   143  138  142 1   
   144  138  143 1   
   145  139  140 1   
   146  139  144 1   
   147  139  145 1   
   148  140  146 1   
   149  140  147 1   
   150  148  149 1   
   151  148  157 1   
   152  149  150 1   
   153  149  152 1   
   154  149  158 1   
   155  150  151 2   
   156  150  163 1   
   157  152  153 1   
   158  152  159 1   
   159  152  160 1   
   160  153  154 1   
   161  153  161 1   
   162  153  162 1   
   163  154  155 1   
   164  154  156 1   
   165  163  164 1   
   166  163  168 1   
   167  164  165 1   
   168  164  166 1   
   169  164  167 1   
   170  170  171 1   
   171  170  172 1   
   172  173  174 1   
   173  173  175 1   
   174  176  177 1   
   175  176  178 1   
   176  179  180 1   
   177  179  181 1   
@<TRIPOS>SUBSTRUCTURE
     1 MOL         1 TEMP              0 ****  ****    0 ROOT
