@<TRIPOS>MOLECULE
MOL
  175   173     1     0     0
SMALL
resp


@<TRIPOS>ATOM
      1 C1         -7.1760    8.0400    1.9700 c3        1 MOL     -0.415558
      2 C2         -7.9100    7.3250    0.8540 c         1 MOL      0.668027
      3 O1         -7.9770    7.7710   -0.2590 o         1 MOL     -0.566315
      4 H1         -7.3790    9.1090    1.9110 hc        1 MOL      0.099235
      5 H2         -7.5180    7.6590    2.9330 hc        1 MOL      0.099235
      6 H3         -6.1040    7.8680    1.8700 hc        1 MOL      0.099235
      7 N1         -8.5300    6.1580    1.1750 n         1 MOL     -0.517749
      8 C3         -9.1490    5.2620    0.2230 c3        1 MOL      0.111139
      9 C4         -8.0790    4.3510   -0.5050 c         1 MOL      0.464631
     10 O2         -8.3530    3.7760   -1.5390 o         1 MOL     -0.485730
     11 C5        -10.1600    4.4600    1.0910 c3        1 MOL     -0.238106
     12 C6        -10.7310    3.1840    0.3910 c         1 MOL      0.724313
     13 O3        -10.7210    2.0670    1.0100 o         1 MOL     -0.728794
     14 O4        -11.2260    3.2900   -0.7830 o         1 MOL     -0.728794
     15 H4         -8.4560    5.7860    2.1170 hn        1 MOL      0.289057
     16 H5         -9.6980    5.9040   -0.4710 h1        1 MOL      0.092783
     17 H6        -11.0210    4.9980    1.5000 hc        1 MOL      0.020093
     18 H7         -9.5920    4.0670    1.9360 hc        1 MOL      0.020093
     19 N2         -6.8500    4.1050    0.0840 n         1 MOL     -0.416150
     20 C7         -5.8140    3.3030   -0.5880 c3        1 MOL      0.265103
     21 C8         -5.0190    2.4000    0.4390 c         1 MOL      0.275950
     22 O5         -4.5410    2.9040    1.4760 o         1 MOL     -0.500207
     23 C9         -4.8100    4.3110   -1.1570 c3        1 MOL     -0.432826
     24 H8         -6.6240    4.3860    1.0350 hn        1 MOL      0.244012
     25 H9         -6.2170    2.6980   -1.4000 h1        1 MOL      0.054383
     26 H10        -3.9950    3.7890   -1.6540 hc        1 MOL      0.119760
     27 H11        -5.3550    4.9270   -1.8770 hc        1 MOL      0.119760
     28 H12        -4.3730    4.9900   -0.4190 hc        1 MOL      0.119760
     29 N3         -4.5710    1.2290   -0.0450 n         1 MOL     -0.012331
     30 C10        -5.2250    0.4040   -1.0450 c3        1 MOL     -0.176982
     31 C11        -5.5690   -0.9910   -0.5300 c         1 MOL      0.494173
     32 O6         -4.9660   -1.4730    0.4440 o         1 MOL     -0.517214
     33 C12        -4.2870    0.3200   -2.2880 c3        1 MOL     -0.094831
     34 C13        -2.8880   -0.1400   -1.9170 c         1 MOL      0.667775
     35 O7         -2.1500    0.7290   -1.4150 o         1 MOL     -0.721475
     36 O8         -2.6250   -1.3220   -2.1870 o         1 MOL     -0.721475
     37 H13        -4.0250    0.6340    0.5560 hn        1 MOL      0.136365
     38 H14        -6.2070    0.8060   -1.2770 h1        1 MOL      0.089772
     39 H15        -4.2530    1.3240   -2.7260 hc        1 MOL      0.021470
     40 H16        -4.8200   -0.3210   -2.9790 hc        1 MOL      0.021470
     41 N4         -6.5370   -1.6120   -1.2360 n         1 MOL     -0.368017
     42 C14        -7.0870   -2.9570   -0.9090 c3        1 MOL      0.052342
     43 C15        -6.9090   -3.9270   -2.1050 c         1 MOL      0.500528
     44 O9         -7.8040   -4.1140   -2.9170 o         1 MOL     -0.535162
     45 H17        -7.0780   -1.1040   -1.9200 hn        1 MOL      0.326105
     46 H18        -8.1510   -2.8220   -0.7370 h1        1 MOL      0.045021
     47 H19        -6.5920   -3.4400   -0.0750 h1        1 MOL      0.045021
     48 N5         -5.6750   -4.4950   -2.2630 n         1 MOL     -0.500616
     49 C16        -4.4590   -4.2750   -1.5610 c3        1 MOL      0.048811
     50 C17        -4.2970   -5.0710   -0.2730 c         1 MOL      0.551417
     51 O10        -4.3550   -6.3240   -0.2320 o         1 MOL     -0.553681
     52 C18        -3.2890   -4.5360   -2.5450 c3        1 MOL     -0.135873
     53 C19        -1.9260   -4.0550   -2.0850 c         1 MOL      0.594356
     54 N6         -0.9240   -4.1610   -2.8940 n         1 MOL     -0.673302
     55 O11        -1.7310   -3.6040   -0.9560 o         1 MOL     -0.606580
     56 H20        -5.6780   -5.0680   -3.0900 hn        1 MOL      0.297286
     57 H21        -4.3530   -3.1970   -1.4130 h1        1 MOL      0.128229
     58 H22        -3.4660   -4.0540   -3.5060 hc        1 MOL      0.056236
     59 H23        -3.3010   -5.6230   -2.6360 hc        1 MOL      0.056236
     60 H24        -1.0000   -4.5220   -3.8390 hn        1 MOL      0.316997
     61 H25        -0.0490   -3.7580   -2.6070 hn        1 MOL      0.316997
     62 N7         -4.1640   -4.3220    0.8340 n         1 MOL     -0.193431
     63 C20        -3.9350   -4.7740    2.1650 c3        1 MOL     -0.213587
     64 C21        -2.5150   -5.0200    2.6630 c         1 MOL      0.590045
     65 O12        -2.3360   -5.4890    3.7730 o         1 MOL     -0.585261
     66 H26        -4.1720   -3.3130    0.8080 hn        1 MOL      0.225233
     67 H27        -4.5970   -5.6330    2.2350 h1        1 MOL      0.087603
     68 H28        -4.3630   -4.0630    2.8810 h1        1 MOL      0.087603
     69 N8         -1.4920   -4.6110    1.8740 n         1 MOL     -0.329389
     70 C22        -0.0470   -4.7660    2.1460 c3        1 MOL      0.028885
     71 C23         0.6770   -3.4230    2.0720 c         1 MOL      0.422743
     72 O13         0.3810   -2.4900    1.3170 o         1 MOL     -0.465315
     73 C24         0.6160   -5.8620    1.2600 c3        1 MOL      0.383677
     74 C25         0.3940   -7.2820    1.6410 c3        1 MOL     -0.451781
     75 O14         0.1010   -5.7150   -0.0680 oh        1 MOL     -0.583174
     76 H29        -1.6960   -4.1950    0.9780 hn        1 MOL      0.245296
     77 H30         0.0770   -5.0710    3.1790 h1        1 MOL      0.046641
     78 H31         1.6590   -5.5540    1.1760 h1        1 MOL      0.021580
     79 H32         0.7430   -5.1250   -0.4750 ho        1 MOL      0.367891
     80 H33         0.8980   -7.4380    2.5960 hc        1 MOL      0.112114
     81 H34        -0.6830   -7.4090    1.7200 hc        1 MOL      0.112114
     82 H35         0.8070   -8.0080    0.9440 hc        1 MOL      0.112114
     83 N9          1.7880   -3.3330    2.8020 n         1 MOL     -0.476007
     84 C26         2.8660   -2.2890    2.5920 c3        1 MOL      0.228835
     85 C27         3.7960   -2.8470    1.4650 c         1 MOL      0.253774
     86 O15         4.4420   -3.8610    1.7220 o         1 MOL     -0.564008
     87 C28         3.6570   -1.9030    3.9030 c3        1 MOL      0.188628
     88 C29         4.7660   -0.8570    3.4990 c3        1 MOL      0.272789
     89 C30         2.7080   -1.2990    4.9760 c3        1 MOL     -0.331430
     90 C31         5.5980   -0.4550    4.7700 c3        1 MOL     -0.252738
     91 H36         2.1180   -4.2250    3.1620 hn        1 MOL      0.255327
     92 H37         2.4720   -1.3380    2.2570 h1        1 MOL      0.012992
     93 H38         4.2310   -2.7660    4.2380 hc        1 MOL     -0.041251
     94 H39         4.3140    0.0050    2.9970 hc        1 MOL     -0.079987
     95 H40         5.4620   -1.3360    2.8130 hc        1 MOL     -0.079987
     96 H41         1.8630   -1.9750    5.1260 hc        1 MOL      0.074620
     97 H42         3.1670   -1.3460    5.9670 hc        1 MOL      0.074620
     98 H43         2.4060   -0.2960    4.6910 hc        1 MOL      0.074620
     99 H44         6.0410   -1.3320    5.2320 hc        1 MOL      0.042745
    100 H45         6.3590    0.2580    4.4350 hc        1 MOL      0.042745
    101 H46         4.9980   -0.0160    5.5750 hc        1 MOL      0.042745
    102 N10         3.9270   -2.1550    0.3940 n         1 MOL     -0.063443
    103 C32         4.6350   -2.6410   -0.8130 c3        1 MOL      0.087672
    104 C33         5.8620   -1.8240   -1.2140 c         1 MOL      0.401215
    105 O16         6.5900   -2.1320   -2.1960 o         1 MOL     -0.521635
    106 C34         3.6290   -2.8660   -2.0360 c3        1 MOL     -0.238139
    107 C35         2.3850   -3.6430   -1.6590 c         1 MOL      0.756144
    108 O17         2.4470   -4.8430   -1.4720 o         1 MOL     -0.672087
    109 O18         1.3290   -2.9880   -1.5150 o         1 MOL     -0.672087
    110 H47         3.3340   -1.3470    0.2640 hn        1 MOL      0.120851
    111 H48         5.0920   -3.6220   -0.7020 h1        1 MOL      0.094617
    112 H49         4.1440   -3.3840   -2.8510 hc        1 MOL      0.050312
    113 H50         3.2930   -1.9220   -2.4670 hc        1 MOL      0.050312
    114 N11         6.0680   -0.6660   -0.5370 n         1 MOL     -0.312339
    115 C36         7.0300    0.3090   -0.9850 c3        1 MOL      0.066933
    116 C37         6.5860    1.7550   -0.6470 c         1 MOL      0.264489
    117 O19         6.3260    1.9810    0.5180 o         1 MOL     -0.436725
    118 C38         8.3310    0.0470   -0.2260 c3        1 MOL     -0.115204
    119 C39         9.4730    0.9530   -0.6890 ca        1 MOL      0.017822
    120 C40        10.0730    1.9060    0.0920 ca        1 MOL     -0.122135
    121 C41         9.7180    1.0980   -2.1190 ca        1 MOL     -0.122135
    122 C42        11.0240    2.7620   -0.4040 ca        1 MOL     -0.111179
    123 C43        10.6500    1.9760   -2.6870 ca        1 MOL     -0.111179
    124 C44        11.4080    2.8690   -1.7720 ca        1 MOL     -0.159229
    125 H51         5.4980   -0.3710    0.2450 hn        1 MOL      0.180239
    126 H52         7.2430    0.2100   -2.0580 h1        1 MOL      0.060228
    127 H53         8.6660   -0.9590   -0.4740 hc        1 MOL      0.090145
    128 H54         8.2620   -0.0050    0.8570 hc        1 MOL      0.090145
    129 H55         9.8970    2.0160    1.1500 ha        1 MOL      0.113102
    130 H56         9.2220    0.4020   -2.7800 ha        1 MOL      0.113102
    131 H57        11.4240    3.4450    0.3190 ha        1 MOL      0.105209
    132 H58        10.8570    1.9750   -3.7430 ha        1 MOL      0.105209
    133 H59        12.0770    3.6690   -2.0100 ha        1 MOL      0.124063
    134 N12         6.5850    2.7630   -1.5930 n         1 MOL      0.050474
    135 C45         6.5350    4.2120   -1.2660 c3        1 MOL      0.067119
    136 C46         5.3900    4.7910   -0.4520 c         1 MOL      0.332546
    137 O20         5.5610    5.8140    0.2430 o         1 MOL     -0.526640
    138 C47         6.5850    4.9250   -2.6800 c3        1 MOL     -0.024036
    139 C48         7.1350    3.9160   -3.6740 c3        1 MOL     -0.142212
    140 C49         6.7400    2.5720   -3.0350 c3        1 MOL     -0.054529
    141 H60         7.4390    4.4290   -0.6980 h1        1 MOL      0.038103
    142 H61         5.5680    5.1400   -3.0190 hc        1 MOL      0.041623
    143 H62         7.1400    5.8720   -2.6640 hc        1 MOL      0.041623
    144 H63         6.5900    3.9150   -4.6230 hc        1 MOL      0.057953
    145 H64         8.2130    3.9730   -3.7950 hc        1 MOL      0.057953
    146 H65         5.7530    2.3360   -3.4410 h1        1 MOL      0.051441
    147 H66         7.4620    1.7650   -3.1810 h1        1 MOL      0.051441
    148 N13         4.2860    4.0880   -0.3910 n         1 MOL     -0.275902
    149 C50         3.2030    4.3130    0.5390 c3        1 MOL     -0.003462
    150 C51         3.4080    4.6220    2.0620 c         1 MOL      0.519462
    151 O21         2.6460    5.4300    2.5980 o         1 MOL     -0.523609
    152 C52         2.2710    3.1220    0.3530 c3        1 MOL     -0.189420
    153 C53         2.6800    1.8300    1.0720 c3        1 MOL      0.007807
    154 C54         1.7230    0.7180    0.5900 c         1 MOL      0.726059
    155 O22         2.1240   -0.1820   -0.1760 o         1 MOL     -0.737159
    156 O23         0.5320    0.7300    0.9890 o         1 MOL     -0.737159
    157 H67         4.3500    3.2150   -0.9000 hn        1 MOL      0.194528
    158 H68         2.6140    5.1620    0.1720 h1        1 MOL      0.085662
    159 H69         2.1960    2.8280   -0.6870 hc        1 MOL      0.073439
    160 H70         1.3230    3.5500    0.6830 hc        1 MOL      0.073439
    161 H71         2.5540    1.9220    2.1450 hc        1 MOL      0.002961
    162 H72         3.7410    1.6780    0.8520 hc        1 MOL      0.002961
    163 N14         4.4870    4.0420    2.6350 n         1 MOL     -0.168610
    164 C55         4.7550    4.3160    4.0860 c3        1 MOL     -0.322889
    165 H73         5.0520    5.3580    4.2100 h1        1 MOL      0.122067
    166 H74         3.8510    4.1260    4.6650 h1        1 MOL      0.122067
    167 H75         5.5550    3.6650    4.4370 h1        1 MOL      0.122067
    168 H76         5.1160    3.4480    2.1140 hn        1 MOL      0.220110
    169 Ca1        -0.3550   -1.1980   -0.7630 Ca        1 MOL      1.746478
    170 O24         0.2540   -0.2020   -3.1590 oh        1 MOL     -0.946203
    171 H77        -0.3110    0.5620   -3.3310 ho        1 MOL      0.447079
    172 H78         0.5720   -0.4610   -4.0190 ho        1 MOL      0.447079
    173 O25        -2.3230   -1.3440    1.0430 oh        1 MOL     -0.946203
    174 H79        -3.2710   -1.3780    0.9570 ho        1 MOL      0.447079
    175 H80        -2.1570   -0.6310    1.6640 ho        1 MOL      0.447079
@<TRIPOS>BOND
     1    1    2 1   
     2    1    4 1   
     3    1    5 1   
     4    1    6 1   
     5    2    3 2   
     6    2    7 1   
     7    7    8 1   
     8    7   15 1   
     9    8    9 1   
    10    8   11 1   
    11    8   16 1   
    12    9   10 2   
    13    9   19 1   
    14   11   12 1   
    15   11   17 1   
    16   11   18 1   
    17   12   13 1   
    18   12   14 1   
    19   19   20 1   
    20   19   24 1   
    21   20   21 1   
    22   20   23 1   
    23   20   25 1   
    24   21   22 2   
    25   21   29 1   
    26   23   26 1   
    27   23   27 1   
    28   23   28 1   
    29   29   30 1   
    30   29   37 1   
    31   30   31 1   
    32   30   33 1   
    33   30   38 1   
    34   31   32 2   
    35   31   41 1   
    36   33   34 1   
    37   33   39 1   
    38   33   40 1   
    39   34   35 1   
    40   34   36 1   
    41   41   42 1   
    42   41   45 1   
    43   42   43 1   
    44   42   46 1   
    45   42   47 1   
    46   43   44 2   
    47   43   48 1   
    48   48   49 1   
    49   48   56 1   
    50   49   50 1   
    51   49   52 1   
    52   49   57 1   
    53   50   51 2   
    54   50   62 1   
    55   52   53 1   
    56   52   58 1   
    57   52   59 1   
    58   53   54 1   
    59   53   55 2   
    60   54   60 1   
    61   54   61 1   
    62   62   63 1   
    63   62   66 1   
    64   63   64 1   
    65   63   67 1   
    66   63   68 1   
    67   64   65 2   
    68   64   69 1   
    69   69   70 1   
    70   69   76 1   
    71   70   71 1   
    72   70   73 1   
    73   70   77 1   
    74   71   72 2   
    75   71   83 1   
    76   73   74 1   
    77   73   75 1   
    78   73   78 1   
    79   74   80 1   
    80   74   81 1   
    81   74   82 1   
    82   75   79 1   
    83   83   84 1   
    84   83   91 1   
    85   84   85 1   
    86   84   87 1   
    87   84   92 1   
    88   85   86 2   
    89   85  102 1   
    90   87   88 1   
    91   87   89 1   
    92   87   93 1   
    93   88   90 1   
    94   88   94 1   
    95   88   95 1   
    96   89   96 1   
    97   89   97 1   
    98   89   98 1   
    99   90   99 1   
   100   90  100 1   
   101   90  101 1   
   102  102  103 1   
   103  102  110 1   
   104  103  104 1   
   105  103  106 1   
   106  103  111 1   
   107  104  105 2   
   108  104  114 1   
   109  106  107 1   
   110  106  112 1   
   111  106  113 1   
   112  107  108 1   
   113  107  109 1   
   114  114  115 1   
   115  114  125 1   
   116  115  116 1   
   117  115  118 1   
   118  115  126 1   
   119  116  117 2   
   120  116  134 1   
   121  118  119 1   
   122  118  127 1   
   123  118  128 1   
   124  119  120 ar  
   125  119  121 ar  
   126  120  122 ar  
   127  120  129 1   
   128  121  123 ar  
   129  121  130 1   
   130  122  124 ar  
   131  122  131 1   
   132  123  124 ar  
   133  123  132 1   
   134  124  133 1   
   135  134  135 1   
   136  134  140 1   
   137  135  136 1   
   138  135  138 1   
   139  135  141 1   
   140  136  137 2   
   141  136  148 1   
   142  138  139 1   
   143  138  142 1   
   144  138  143 1   
   145  139  140 1   
   146  139  144 1   
   147  139  145 1   
   148  140  146 1   
   149  140  147 1   
   150  148  149 1   
   151  148  157 1   
   152  149  150 1   
   153  149  152 1   
   154  149  158 1   
   155  150  151 2   
   156  150  163 1   
   157  152  153 1   
   158  152  159 1   
   159  152  160 1   
   160  153  154 1   
   161  153  161 1   
   162  153  162 1   
   163  154  155 1   
   164  154  156 1   
   165  163  164 1   
   166  163  168 1   
   167  164  165 1   
   168  164  166 1   
   169  164  167 1   
   170  170  171 1   
   171  170  172 1   
   172  173  174 1   
   173  173  175 1   
@<TRIPOS>SUBSTRUCTURE
     1 MOL         1 TEMP              0 ****  ****    0 ROOT
