@<TRIPOS>MOLECULE
MOL
  178   175     1     0     0
SMALL
resp


@<TRIPOS>ATOM
      1 C1         -3.4180   -0.2660    4.5670 c3        1 MOL     -0.480747
      2 C2         -4.1610   -1.5310    4.1170 c         1 MOL      0.708116
      3 O1         -3.7860   -2.6090    4.4860 o         1 MOL     -0.595058
      4 H1         -3.8300    0.0790    5.5160 hc        1 MOL      0.119848
      5 H2         -2.3590   -0.4900    4.6920 hc        1 MOL      0.119848
      6 H3         -3.5390    0.5150    3.8150 hc        1 MOL      0.119848
      7 N1         -5.2870   -1.2670    3.4070 n         1 MOL     -0.375654
      8 C3         -6.2330   -2.2170    2.9670 c3        1 MOL     -0.002943
      9 C4         -6.2660   -2.3590    1.3950 c         1 MOL      0.726453
     10 O2         -6.0800   -1.4080    0.6230 o         1 MOL     -0.615862
     11 C5         -7.6370   -2.0910    3.6160 c3        1 MOL     -0.154266
     12 C6         -8.4550   -0.8790    3.3390 c         1 MOL      0.775863
     13 O3         -9.5440   -0.8000    3.8750 o         1 MOL     -0.729919
     14 O4         -8.0510   -0.0800    2.4440 o         1 MOL     -0.729919
     15 H4         -5.5860   -0.3160    3.2070 hn        1 MOL      0.219006
     16 H5         -5.9430   -3.2110    3.3240 h1        1 MOL      0.023040
     17 H6         -7.5540   -1.9900    4.6940 hc        1 MOL      0.021306
     18 H7         -8.2570   -2.9420    3.3400 hc        1 MOL      0.021306
     19 N2         -6.3170   -3.5980    0.8390 n         1 MOL     -0.681438
     20 C7         -5.9480   -3.9570   -0.5320 c3        1 MOL      0.532414
     21 C8         -4.4770   -3.8320   -0.8700 c         1 MOL      0.258609
     22 O5         -3.5040   -3.8740   -0.0730 o         1 MOL     -0.536547
     23 C9         -6.6000   -5.3560   -0.7940 c3        1 MOL     -0.243413
     24 H8         -6.6390   -4.3840    1.3840 hn        1 MOL      0.300580
     25 H9         -6.3950   -3.3170   -1.2980 h1        1 MOL     -0.015514
     26 H10        -7.6830   -5.3030   -0.6900 hc        1 MOL      0.051150
     27 H11        -6.3610   -5.6720   -1.8090 hc        1 MOL      0.051150
     28 H12        -6.2100   -6.1730   -0.1960 hc        1 MOL      0.051150
     29 N3         -4.2470   -3.7010   -2.1420 n         1 MOL     -0.551109
     30 C10        -2.9890   -3.1650   -2.6780 c3        1 MOL      0.137588
     31 C11        -1.9330   -4.2170   -3.0420 c         1 MOL      0.539656
     32 O6         -1.2440   -4.1320   -4.0690 o         1 MOL     -0.522556
     33 C12        -3.2860   -2.1480   -3.8270 c3        1 MOL     -0.129204
     34 C13        -4.3990   -1.0980   -3.5710 c         1 MOL      0.533309
     35 O7         -4.6240   -0.7750   -2.3660 o         1 MOL     -0.616079
     36 O8         -4.9200   -0.4450   -4.5140 o         1 MOL     -0.616079
     37 H13        -5.0410   -3.8460   -2.7570 hn        1 MOL      0.346614
     38 H14        -2.6740   -2.5360   -1.8400 h1        1 MOL      0.030730
     39 H15        -3.5470   -2.6650   -4.7470 hc        1 MOL      0.041008
     40 H16        -2.3470   -1.6800   -4.1050 hc        1 MOL      0.041008
     41 N4         -1.9190   -5.3660   -2.3480 n         1 MOL     -0.404549
     42 C14        -0.9730   -6.4560   -2.6490 c3        1 MOL     -0.212200
     43 C15         0.4210   -6.1840   -2.0010 c         1 MOL      0.652769
     44 O9          1.0760   -7.1160   -1.4120 o         1 MOL     -0.615037
     45 H17        -2.3560   -5.4220   -1.4410 hn        1 MOL      0.361260
     46 H18        -0.8260   -6.5020   -3.7220 h1        1 MOL      0.114480
     47 H19        -1.2630   -7.3740   -2.1330 h1        1 MOL      0.114480
     48 N5          0.9340   -5.0230   -2.2940 n         1 MOL     -0.605577
     49 C16         2.3860   -4.8140   -2.0740 c3        1 MOL      0.412708
     50 C17         2.8520   -4.4240   -0.6600 c         1 MOL      0.408350
     51 O10         2.2830   -3.4960   -0.1310 o         1 MOL     -0.439985
     52 C18         2.8080   -3.7150   -3.0750 c3        1 MOL     -0.278873
     53 C19         4.2570   -3.8590   -3.6450 c         1 MOL      0.600629
     54 N6          5.2100   -4.0010   -2.7720 n         1 MOL     -0.666117
     55 O11         4.4880   -4.1710   -4.8560 o         1 MOL     -0.578895
     56 H20         0.3600   -4.3790   -2.8210 hn        1 MOL      0.315796
     57 H21         2.9750   -5.6940   -2.3170 h1        1 MOL     -0.031261
     58 H22         2.8610   -2.7740   -2.5340 hc        1 MOL      0.099481
     59 H23         2.0800   -3.6380   -3.8890 hc        1 MOL      0.099481
     60 H24         5.0120   -3.8530   -1.7920 hn        1 MOL      0.316119
     61 H25         6.1770   -4.1260   -3.0260 hn        1 MOL      0.316119
     62 N7          3.9190   -5.0230   -0.1780 n         1 MOL     -0.365142
     63 C20         4.6600   -4.7150    1.0210 c3        1 MOL     -0.094068
     64 C21         5.4650   -3.3720    1.0090 c         1 MOL      0.379650
     65 O12         5.3460   -2.6880    0.0180 o         1 MOL     -0.360100
     66 H26         4.3580   -5.7400   -0.7470 hn        1 MOL      0.249701
     67 H27         5.3000   -5.5770    1.2030 h1        1 MOL      0.098744
     68 H28         4.0000   -4.6410    1.8780 h1        1 MOL      0.098744
     69 N8          6.1870   -3.0060    2.1140 n         1 MOL     -0.343036
     70 C22         7.0070   -1.7570    2.2560 c3        1 MOL     -0.272859
     71 C23         6.1510   -0.4770    2.5190 c         1 MOL      0.376089
     72 O13         6.7120    0.6200    2.3710 o         1 MOL     -0.491084
     73 C24         8.0390   -1.8830    3.3650 c3        1 MOL      0.527053
     74 C25         7.5460   -2.1780    4.7930 c3        1 MOL     -0.385756
     75 O14         8.9250   -3.0230    3.0770 oh        1 MOL     -0.674672
     76 H29         6.1820   -3.7670    2.7780 hn        1 MOL      0.222987
     77 H30         7.5710   -1.6100    1.3290 h1        1 MOL      0.158830
     78 H31         8.6300   -0.9750    3.3270 h1        1 MOL      0.046839
     79 H32         8.4170   -3.8340    3.0020 ho        1 MOL      0.386596
     80 H33         7.0490   -1.2790    5.1620 hc        1 MOL      0.093556
     81 H34         6.7810   -2.9570    4.8100 hc        1 MOL      0.093556
     82 H35         8.4010   -2.3460    5.4380 hc        1 MOL      0.093556
     83 N9          4.8590   -0.7040    2.7690 n         1 MOL     -0.141780
     84 C26         3.8210    0.2760    2.9890 c3        1 MOL     -0.009759
     85 C27         2.7270    0.1320    1.8800 c         1 MOL      0.392146
     86 O15         2.1020   -0.9190    1.6120 o         1 MOL     -0.486896
     87 C28         3.3180    0.2880    4.3940 c3        1 MOL      0.059956
     88 C29         4.3220   -0.0150    5.5760 c3        1 MOL     -0.104270
     89 C30         2.5120    1.5660    4.6860 c3        1 MOL     -0.019388
     90 C31         5.4080    1.0180    5.6730 c3        1 MOL     -0.055104
     91 H36         4.6420   -1.6830    2.8900 hn        1 MOL      0.219352
     92 H37         4.2640    1.2610    2.8610 h1        1 MOL      0.078383
     93 H38         2.5750   -0.5040    4.5250 hc        1 MOL      0.009702
     94 H39         4.8590   -0.9460    5.4000 hc        1 MOL      0.037762
     95 H40         3.8720   -0.0810    6.5680 hc        1 MOL      0.037762
     96 H41         2.2590    1.5300    5.7490 hc        1 MOL      0.011457
     97 H42         3.0660    2.4940    4.5480 hc        1 MOL      0.011457
     98 H43         1.5780    1.6680    4.1350 hc        1 MOL      0.011457
     99 H44         5.0010    2.0130    5.8510 hc        1 MOL      0.010965
    100 H45         5.9410    0.7380    6.5890 hc        1 MOL      0.010965
    101 H46         6.1150    1.0760    4.8430 hc        1 MOL      0.010965
    102 N10         2.2620    1.2480    1.2460 n         1 MOL     -0.437240
    103 C32         1.0270    1.2780    0.3780 c3        1 MOL      0.394904
    104 C33         1.2200    2.2900   -0.7950 c         1 MOL      0.244292
    105 O16         0.3120    3.0400   -1.2040 o         1 MOL     -0.338907
    106 C34        -0.1940    1.5270    1.3180 c3        1 MOL     -0.154755
    107 C35        -1.5720    1.3180    0.5550 c         1 MOL      0.696838
    108 O17        -1.6740    0.8360   -0.5650 o         1 MOL     -0.724381
    109 O18        -2.5610    1.6570    1.2390 o         1 MOL     -0.724381
    110 H47         2.7020    2.1210    1.4960 hn        1 MOL      0.230228
    111 H48         0.8620    0.3200   -0.1100 h1        1 MOL      0.030239
    112 H49        -0.1400    2.5380    1.7250 hc        1 MOL      0.035758
    113 H50        -0.1790    0.8940    2.2150 hc        1 MOL      0.035758
    114 N11         2.4970    2.3430   -1.2460 n         1 MOL     -0.254978
    115 C36         3.1350    3.3220   -2.0680 c3        1 MOL      0.066220
    116 C37         2.6690    4.7020   -1.6880 c         1 MOL      0.350180
    117 O19         2.9980    5.2640   -0.6520 o         1 MOL     -0.504060
    118 C38         4.6590    3.1110   -1.7910 c3        1 MOL     -0.197795
    119 C39         5.2600    1.7270   -2.0900 ca        1 MOL      0.065883
    120 C40         5.3010    1.3140   -3.4170 ca        1 MOL     -0.137902
    121 C41         5.8560    0.8620   -1.0820 ca        1 MOL     -0.137902
    122 C42         5.8400    0.0760   -3.7890 ca        1 MOL     -0.075925
    123 C43         6.4050   -0.4110   -1.4600 ca        1 MOL     -0.075925
    124 C44         6.4420   -0.7870   -2.8350 ca        1 MOL     -0.204915
    125 H51         3.0940    1.5790   -0.9620 hn        1 MOL      0.193361
    126 H52         2.8150    3.0880   -3.0870 h1        1 MOL      0.048197
    127 H53         4.8350    3.2930   -0.7350 hc        1 MOL      0.092358
    128 H54         5.2670    3.8660   -2.2860 hc        1 MOL      0.092358
    129 H55         4.8790    1.9900   -4.1560 ha        1 MOL      0.094706
    130 H56         5.8580    1.1720   -0.0480 ha        1 MOL      0.094706
    131 H57         5.8260   -0.1730   -4.8390 ha        1 MOL      0.106440
    132 H58         6.8400   -0.9760   -0.6380 ha        1 MOL      0.106440
    133 H59         6.8260   -1.7610   -3.1130 ha        1 MOL      0.129499
    134 N12         1.8440    5.4420   -2.6010 n         1 MOL     -0.059879
    135 C45         1.5950    6.8370   -2.4000 c3        1 MOL      0.065525
    136 C46         0.4980    7.1450   -1.3630 c         1 MOL      0.223236
    137 O20         0.3080    8.2790   -0.8770 o         1 MOL     -0.501885
    138 C47         1.1190    7.3430   -3.7770 c3        1 MOL     -0.037686
    139 C48         0.6190    6.1240   -4.5360 c3        1 MOL      0.004462
    140 C49         1.5310    4.9990   -3.9250 c3        1 MOL     -0.109801
    141 H60         2.4620    7.4390   -2.1510 h1        1 MOL      0.057836
    142 H61         0.4070    8.1650   -3.6650 hc        1 MOL      0.020453
    143 H62         2.0300    7.7040   -4.2460 hc        1 MOL      0.020453
    144 H63        -0.4440    5.9520   -4.3810 hc        1 MOL      0.023320
    145 H64         0.8380    6.2340   -5.5960 hc        1 MOL      0.023320
    146 H65         1.0130    4.0490   -4.0200 h1        1 MOL      0.059326
    147 H66         2.4640    4.9200   -4.4870 h1        1 MOL      0.059326
    148 N13        -0.2500    6.0810   -0.9820 n         1 MOL      0.019328
    149 C50        -1.5240    6.2770   -0.1750 c3        1 MOL     -0.223375
    150 C51        -1.1720    6.6790    1.2610 c         1 MOL      0.518084
    151 O21        -1.8010    7.5500    1.8880 o         1 MOL     -0.554337
    152 C52        -2.4070    5.0300   -0.1140 c3        1 MOL      0.258536
    153 C53        -3.1360    4.6610   -1.3980 c3        1 MOL     -0.220199
    154 C54        -4.1360    3.4570   -1.1470 c         1 MOL      0.661616
    155 O22        -4.7850    3.2390   -0.0950 o         1 MOL     -0.701536
    156 O23        -4.4330    2.6980   -2.0890 o         1 MOL     -0.701536
    157 H67        -0.0670    5.1280   -1.2730 hn        1 MOL      0.087701
    158 H68        -2.0290    7.1150   -0.6700 h1        1 MOL      0.114812
    159 H69        -3.2050    5.2080    0.5970 hc        1 MOL     -0.039301
    160 H70        -1.7900    4.2010    0.2480 hc        1 MOL     -0.039301
    161 H71        -2.4300    4.4680   -2.2110 hc        1 MOL      0.034595
    162 H72        -3.5710    5.6060   -1.7260 hc        1 MOL      0.034595
    163 N14        -0.1450    6.0470    1.8070 n         1 MOL     -0.227512
    164 C55         0.1790    6.1840    3.2210 c3        1 MOL     -0.299351
    165 H73        -0.7400    6.1600    3.8080 h1        1 MOL      0.112133
    166 H74         0.8260    5.3620    3.5280 h1        1 MOL      0.112133
    167 H75         0.6910    7.1310    3.3880 h1        1 MOL      0.112133
    168 H76         0.2620    5.2870    1.2740 hn        1 MOL      0.226185
    169 Ca1        -4.5220    0.6210   -0.3520 Ca        1 MOL      1.694272
    170 O24        -7.1360    0.8540   -1.2540 oh        1 MOL     -0.811804
    171 H77        -7.7330    0.7460   -0.5170 ho        1 MOL      0.398608
    172 H78        -7.7030    1.1430   -1.9770 ho        1 MOL      0.398608
    173 O25        -5.9000    1.2370    1.8420 oh        1 MOL     -0.811804
    174 H79        -6.7420    0.7820    1.8350 ho        1 MOL      0.398608
    175 H80        -5.9870    1.9090    2.5180 ho        1 MOL      0.398608
    176 O26        -2.9880   -1.3800    0.6880 oh        1 MOL     -0.811804
    177 H81        -3.2760   -2.2840    0.5820 ho        1 MOL      0.398608
    178 H82        -2.0420   -1.4160    0.6070 ho        1 MOL      0.398608
@<TRIPOS>BOND
     1    1    2 1   
     2    1    4 1   
     3    1    5 1   
     4    1    6 1   
     5    2    3 2   
     6    2    7 1   
     7    7    8 1   
     8    7   15 1   
     9    8    9 1   
    10    8   11 1   
    11    8   16 1   
    12    9   10 2   
    13    9   19 1   
    14   11   12 1   
    15   11   17 1   
    16   11   18 1   
    17   12   13 1   
    18   12   14 1   
    19   19   20 1   
    20   19   24 1   
    21   20   21 1   
    22   20   23 1   
    23   20   25 1   
    24   21   22 2   
    25   21   29 1   
    26   23   26 1   
    27   23   27 1   
    28   23   28 1   
    29   29   30 1   
    30   29   37 1   
    31   30   31 1   
    32   30   33 1   
    33   30   38 1   
    34   31   32 2   
    35   31   41 1   
    36   33   34 1   
    37   33   39 1   
    38   33   40 1   
    39   34   35 1   
    40   34   36 1   
    41   41   42 1   
    42   41   45 1   
    43   42   43 1   
    44   42   46 1   
    45   42   47 1   
    46   43   44 2   
    47   43   48 1   
    48   48   49 1   
    49   48   56 1   
    50   49   50 1   
    51   49   52 1   
    52   49   57 1   
    53   50   51 2   
    54   50   62 1   
    55   52   53 1   
    56   52   58 1   
    57   52   59 1   
    58   53   54 1   
    59   53   55 2   
    60   54   60 1   
    61   54   61 1   
    62   62   63 1   
    63   62   66 1   
    64   63   64 1   
    65   63   67 1   
    66   63   68 1   
    67   64   65 2   
    68   64   69 1   
    69   69   70 1   
    70   69   76 1   
    71   70   71 1   
    72   70   73 1   
    73   70   77 1   
    74   71   72 2   
    75   71   83 1   
    76   73   74 1   
    77   73   75 1   
    78   73   78 1   
    79   74   80 1   
    80   74   81 1   
    81   74   82 1   
    82   75   79 1   
    83   83   84 1   
    84   83   91 1   
    85   84   85 1   
    86   84   87 1   
    87   84   92 1   
    88   85   86 2   
    89   85  102 1   
    90   87   88 1   
    91   87   89 1   
    92   87   93 1   
    93   88   90 1   
    94   88   94 1   
    95   88   95 1   
    96   89   96 1   
    97   89   97 1   
    98   89   98 1   
    99   90   99 1   
   100   90  100 1   
   101   90  101 1   
   102  102  103 1   
   103  102  110 1   
   104  103  104 1   
   105  103  106 1   
   106  103  111 1   
   107  104  105 2   
   108  104  114 1   
   109  106  107 1   
   110  106  112 1   
   111  106  113 1   
   112  107  108 1   
   113  107  109 1   
   114  114  115 1   
   115  114  125 1   
   116  115  116 1   
   117  115  118 1   
   118  115  126 1   
   119  116  117 2   
   120  116  134 1   
   121  118  119 1   
   122  118  127 1   
   123  118  128 1   
   124  119  120 ar  
   125  119  121 ar  
   126  120  122 ar  
   127  120  129 1   
   128  121  123 ar  
   129  121  130 1   
   130  122  124 ar  
   131  122  131 1   
   132  123  124 ar  
   133  123  132 1   
   134  124  133 1   
   135  134  135 1   
   136  134  140 1   
   137  135  136 1   
   138  135  138 1   
   139  135  141 1   
   140  136  137 2   
   141  136  148 1   
   142  138  139 1   
   143  138  142 1   
   144  138  143 1   
   145  139  140 1   
   146  139  144 1   
   147  139  145 1   
   148  140  146 1   
   149  140  147 1   
   150  148  149 1   
   151  148  157 1   
   152  149  150 1   
   153  149  152 1   
   154  149  158 1   
   155  150  151 2   
   156  150  163 1   
   157  152  153 1   
   158  152  159 1   
   159  152  160 1   
   160  153  154 1   
   161  153  161 1   
   162  153  162 1   
   163  154  155 1   
   164  154  156 1   
   165  163  164 1   
   166  163  168 1   
   167  164  165 1   
   168  164  166 1   
   169  164  167 1   
   170  170  171 1   
   171  170  172 1   
   172  173  174 1   
   173  173  175 1   
   174  176  177 1   
   175  176  178 1   
@<TRIPOS>SUBSTRUCTURE
     1 MOL         1 TEMP              0 ****  ****    0 ROOT
