@<TRIPOS>MOLECULE
MOL
  192   187     1     0     0
SMALL
resp


@<TRIPOS>ATOM
      1 C1          9.6900    0.1820    1.6670 c3        1 MOL     -0.472925
      2 C2          8.4430   -0.3270    0.9540 c         1 MOL      0.794291
      3 O1          7.3350   -0.2270    1.4660 o         1 MOL     -0.665795
      4 H1          9.3970    0.8510    2.4770 hc        1 MOL      0.123725
      5 H2         10.2450   -0.6620    2.0770 hc        1 MOL      0.123725
      6 H3         10.3190    0.7220    0.9600 hc        1 MOL      0.123725
      7 N1          8.5860   -1.0050   -0.2190 n         1 MOL     -0.664019
      8 C3          7.5290   -1.0820   -1.3150 c3        1 MOL      0.053074
      9 C4          6.5510   -2.2680   -1.2010 c         1 MOL      0.538525
     10 O2          6.0720   -2.9120   -2.1090 o         1 MOL     -0.492965
     11 C5          8.3450   -1.1800   -2.6760 c3        1 MOL     -0.165409
     12 C6          9.2450   -0.0120   -3.0020 c         1 MOL      0.737173
     13 O3          8.7700    1.0300   -3.5870 o         1 MOL     -0.657790
     14 O4         10.4570   -0.1470   -2.8180 o         1 MOL     -0.657790
     15 H4          9.5430   -1.1150   -0.5300 hn        1 MOL      0.295487
     16 H5          7.0330   -0.1190   -1.2190 h1        1 MOL      0.098912
     17 H6          7.5690   -1.2500   -3.4460 hc        1 MOL      0.049982
     18 H7          8.9340   -2.0900   -2.6590 hc        1 MOL      0.049982
     19 N2          6.3050   -2.6800    0.0240 n         1 MOL     -0.318790
     20 C7          5.7110   -3.9380    0.5050 c3        1 MOL     -0.053980
     21 C8          4.2140   -4.2000   -0.0160 c         1 MOL      0.643843
     22 O5          3.8880   -5.2040   -0.5180 o         1 MOL     -0.553294
     23 C9          5.8800   -4.2900    2.0180 c3        1 MOL     -0.220865
     24 C10         7.4120   -4.2640    2.3700 c3        1 MOL      0.063406
     25 C11         7.6250   -4.4330    3.8780 c3        1 MOL      0.031122
     26 C12         9.1400   -4.0170    4.1740 c3        1 MOL      0.132690
     27 N3          9.3280   -4.0190    5.6280 n4        1 MOL     -0.336039
     28 H8          6.5810   -2.0300    0.7460 hn        1 MOL      0.313468
     29 H9          6.3010   -4.7070   -0.0070 h1        1 MOL      0.079003
     30 H10         5.5570   -5.3270    2.1410 hc        1 MOL      0.092856
     31 H11         5.2840   -3.6840    2.6920 hc        1 MOL      0.092856
     32 H12         7.9670   -3.3590    2.1310 hc        1 MOL      0.008191
     33 H13         7.8880   -5.0840    1.8150 hc        1 MOL      0.008191
     34 H14         7.4710   -5.4520    4.2390 hc        1 MOL     -0.002053
     35 H15         6.9150   -3.7370    4.3250 hc        1 MOL     -0.002053
     36 H16         9.2260   -3.0140    3.7630 hx        1 MOL      0.037664
     37 H17         9.8060   -4.6910    3.6170 hx        1 MOL      0.037664
     38 H18        10.2910   -3.8300    5.8520 hn        1 MOL      0.273068
     39 H19         8.7270   -3.3040    6.0080 hn        1 MOL      0.273068
     40 H20         9.0840   -4.9060    6.0590 hn        1 MOL      0.273068
     41 N4          3.3040   -3.2420    0.2260 n         1 MOL     -0.507592
     42 C13         3.3990   -1.9050    0.8980 c3        1 MOL      0.026700
     43 C14         3.7570   -0.8910   -0.0910 c         1 MOL     -0.025837
     44 O6          3.6930   -0.9810   -1.3310 o         1 MOL     -0.246115
     45 C15         2.1040   -1.6390    1.7820 c3        1 MOL     -0.196706
     46 C16         0.7900   -1.9720    1.0690 c         1 MOL      0.630060
     47 O7          0.5040   -1.5180   -0.0440 o         1 MOL     -0.652272
     48 O8         -0.0220   -2.7120    1.6840 o         1 MOL     -0.652272
     49 H21         2.4260   -3.5170   -0.1920 hn        1 MOL      0.371613
     50 H22         4.2190   -1.9250    1.6140 h1        1 MOL      0.104992
     51 H23         2.0170   -0.5700    1.9630 hc        1 MOL      0.066274
     52 H24         2.1740   -2.1280    2.7560 hc        1 MOL      0.066274
     53 N5          4.1100    0.2710    0.5090 n         1 MOL     -0.249275
     54 C17         4.3870    1.4910   -0.1510 c3        1 MOL     -0.075087
     55 C18         3.1840    2.1220   -0.8970 c         1 MOL      0.485134
     56 O9          2.0040    1.6950   -0.7420 o         1 MOL     -0.416067
     57 H25         4.3830    0.2560    1.4780 hn        1 MOL      0.283588
     58 H26         5.1590    1.3450   -0.9150 h1        1 MOL      0.089868
     59 H27         4.7670    2.2640    0.5040 h1        1 MOL      0.089868
     60 N6          3.4940    3.1880   -1.6450 n         1 MOL     -0.416011
     61 C19         2.5740    4.0300   -2.4220 c3        1 MOL      0.300420
     62 C20         3.0430    5.5150   -2.5810 c         1 MOL      0.373512
     63 O10         4.2320    5.8100   -2.6250 o         1 MOL     -0.492165
     64 C21         2.2760    3.4660   -3.9090 c3        1 MOL     -0.203084
     65 C22         1.5300    2.0840   -4.0030 c         1 MOL      0.580193
     66 O11         2.0660    1.1330   -4.5550 o         1 MOL     -0.603391
     67 O12         0.3690    1.9980   -3.4640 o         1 MOL     -0.603391
     68 H28         4.4790    3.4350   -1.5970 hn        1 MOL      0.261661
     69 H29         1.6110    3.9660   -1.9100 h1        1 MOL     -0.060383
     70 H30         3.2420    3.3660   -4.3980 hc        1 MOL      0.065111
     71 H31         1.6160    4.1810   -4.3970 hc        1 MOL      0.065111
     72 N7          2.1290    6.5000   -2.6110 n         1 MOL     -0.365151
     73 C23         0.6630    6.4400   -2.6650 c3        1 MOL     -0.146903
     74 C24        -0.0530    6.1260   -1.3480 c         1 MOL      0.695475
     75 O13         0.3800    6.4650   -0.2850 o         1 MOL     -0.551783
     76 H32         2.4740    7.4570   -2.6310 hn        1 MOL      0.302447
     77 H33         0.2510    5.8150   -3.4650 h1        1 MOL      0.086290
     78 H34         0.4110    7.4640   -2.9560 h1        1 MOL      0.086290
     79 N8         -1.1780    5.4690   -1.4650 n         1 MOL     -0.691088
     80 C25        -1.9320    5.0070   -0.2850 c3        1 MOL      0.098313
     81 C26        -1.2460    3.8330    0.3820 c         1 MOL      1.162169
     82 O14        -0.7880    2.9360   -0.3070 o         1 MOL     -0.938863
     83 C27        -3.4520    4.5560   -0.5420 c3        1 MOL      0.099129
     84 C28        -4.4310    4.6610    0.6640 c3        1 MOL     -0.161541
     85 O15        -3.6240    3.3360   -1.2570 oh        1 MOL     -0.528906
     86 H35        -1.5200    5.1940   -2.3730 hn        1 MOL      0.327396
     87 H36        -2.0160    5.7690    0.4930 h1        1 MOL      0.030614
     88 H37        -3.7880    5.2690   -1.2880 h1        1 MOL      0.077072
     89 H38        -3.1040    3.3140   -2.0580 ho        1 MOL      0.352987
     90 H39        -4.5210    5.6790    1.0340 hc        1 MOL      0.063579
     91 H40        -5.4200    4.3800    0.3100 hc        1 MOL      0.063579
     92 H41        -4.0380    4.1750    1.5550 hc        1 MOL      0.063579
     93 N9         -1.2900    3.8350    1.7070 n         1 MOL     -0.775377
     94 C29        -0.5890    2.9730    2.6050 c3        1 MOL      0.216692
     95 C30        -0.9180    1.5030    2.4280 c         1 MOL      0.533791
     96 O16        -0.3230    0.7730    1.6040 o         1 MOL     -0.521702
     97 C31         0.9800    3.2990    2.6050 c3        1 MOL      0.014710
     98 C32         1.4010    4.7620    2.7360 c3        1 MOL     -0.010259
     99 C33         1.7180    2.4630    3.6280 c3        1 MOL     -0.498961
    100 C34         1.0760    5.5070    4.0290 c3        1 MOL     -0.432943
    101 H42        -1.5540    4.7300    2.1040 hn        1 MOL      0.318367
    102 H43        -0.8920    3.2280    3.6220 h1        1 MOL      0.053850
    103 H44         1.2550    3.0300    1.5820 hc        1 MOL      0.013621
    104 H45         0.9940    5.2760    1.8730 hc        1 MOL      0.059607
    105 H46         2.4670    4.8050    2.4910 hc        1 MOL      0.059607
    106 H47         1.3740    1.4330    3.4920 hc        1 MOL      0.140146
    107 H48         2.7750    2.4920    3.3650 hc        1 MOL      0.140146
    108 H49         1.6130    2.9490    4.5990 hc        1 MOL      0.140146
    109 H50         1.0900    6.5800    3.8820 hc        1 MOL      0.115425
    110 H51         0.0750    5.1640    4.3080 hc        1 MOL      0.115425
    111 H52         1.8620    5.3090    4.7630 hc        1 MOL      0.115425
    112 N10        -2.0050    1.1200    3.0590 n         1 MOL     -0.508118
    113 C35        -2.5390   -0.2630    3.0630 c3        1 MOL      0.178038
    114 C36        -4.0460   -0.3260    2.9640 c         1 MOL      0.254334
    115 O17        -4.6140   -1.3480    3.2640 o         1 MOL     -0.517347
    116 C37        -2.0510   -1.0620    4.3220 c3        1 MOL      0.339570
    117 C38        -2.1340   -0.3150    5.6550 c3        1 MOL     -0.240783
    118 O18        -0.6320   -1.2200    4.1550 oh        1 MOL     -0.609576
    119 H53        -2.4700    1.7950    3.6470 hn        1 MOL      0.232857
    120 H54        -2.1110   -0.7560    2.1890 h1        1 MOL      0.055462
    121 H55        -2.5020   -2.0490    4.3680 h1        1 MOL      0.031347
    122 H56        -0.4720   -1.6780    3.3340 ho        1 MOL      0.348871
    123 H57        -1.6300   -0.8000    6.4920 hc        1 MOL      0.058144
    124 H58        -1.6510    0.6610    5.5770 hc        1 MOL      0.058144
    125 H59        -3.1580   -0.2320    6.0360 hc        1 MOL      0.058144
    126 N11        -4.7640    0.7150    2.5820 n         1 MOL     -0.120040
    127 C39        -6.2180    0.6320    2.7550 c3        1 MOL      0.008469
    128 C40        -6.7830   -0.1130    1.5550 c         1 MOL      0.497972
    129 O19        -6.9690    0.4860    0.4810 o         1 MOL     -0.516571
    130 C41        -6.8740    1.9220    3.0710 c3        1 MOL      0.345160
    131 C42        -6.3990    2.4480    4.4070 c3        1 MOL     -0.054468
    132 O20        -6.6700    2.8900    2.1020 oh        1 MOL     -0.632604
    133 H60        -4.3040    1.5110    2.1630 hn        1 MOL      0.226612
    134 H61        -6.4160   -0.0290    3.5950 h1        1 MOL      0.083557
    135 H62        -7.9190    1.6700    3.2200 h1        1 MOL     -0.008311
    136 H63        -7.4000    3.5170    2.1560 ho        1 MOL      0.402221
    137 H64        -6.6900    1.6670    5.1080 hc        1 MOL     -0.010255
    138 H65        -5.3330    2.6240    4.4780 hc        1 MOL     -0.010255
    139 H66        -6.8540    3.4030    4.6910 hc        1 MOL     -0.010255
    140 N12        -6.9470   -1.4670    1.5450 n         1 MOL     -0.810616
    141 C43        -6.7240   -2.2740    0.2710 c3        1 MOL      0.619546
    142 C44        -5.3390   -2.1240   -0.4220 c         1 MOL      0.323040
    143 O21        -4.5490   -1.2490   -0.0410 o         1 MOL     -0.349834
    144 C45        -7.8880   -2.1070   -0.7490 c3        1 MOL     -0.519746
    145 C46        -9.2720   -1.9910   -0.0330 c3        1 MOL      0.444056
    146 C47       -10.3760   -2.3020   -1.0150 c3        1 MOL     -0.109998
    147 C48       -11.8530   -2.1660   -0.4180 c3        1 MOL     -0.229214
    148 N13       -12.1930   -3.3030    0.4660 n4        1 MOL     -0.224506
    149 H67        -6.8730   -1.9150    2.4490 hn        1 MOL      0.368753
    150 H68        -6.7020   -3.3190    0.5810 h1        1 MOL     -0.041788
    151 H69        -7.9070   -2.9970   -1.3720 hc        1 MOL      0.118891
    152 H70        -7.7140   -1.2850   -1.4510 hc        1 MOL      0.118891
    153 H71        -9.3790   -0.9970    0.3950 hc        1 MOL     -0.072191
    154 H72        -9.1400   -2.7580    0.7330 hc        1 MOL     -0.072191
    155 H73       -10.2470   -3.3080   -1.4160 hc        1 MOL      0.061222
    156 H74       -10.3300   -1.5650   -1.8240 hc        1 MOL      0.061222
    157 H75       -12.5240   -2.2570   -1.2660 hx        1 MOL      0.165155
    158 H76       -11.9970   -1.1930    0.0570 hx        1 MOL      0.165155
    159 H77       -13.1060   -3.1460    0.8680 hn        1 MOL      0.226731
    160 H78       -12.2530   -4.1190   -0.1130 hn        1 MOL      0.226731
    161 H79       -11.5910   -3.5620    1.2370 hn        1 MOL      0.226731
    162 N14        -4.9930   -3.0180   -1.4100 n         1 MOL     -0.600247
    163 C49        -3.8290   -2.8080   -2.3270 c3        1 MOL      0.159172
    164 C50        -2.5130   -2.6240   -1.5140 c         1 MOL      0.244424
    165 O22        -1.7820   -1.6850   -1.8280 o         1 MOL     -0.482460
    166 C51        -3.7770   -3.9680   -3.2910 c3        1 MOL      0.141079
    167 C52        -4.8640   -3.7750   -4.3370 c3        1 MOL     -0.263836
    168 C53        -4.8260   -4.9040   -5.3180 c         1 MOL      0.710974
    169 O23        -4.7490   -4.6530   -6.5500 o         1 MOL     -0.649847
    170 O24        -4.8450   -6.0880   -4.8990 o         1 MOL     -0.649847
    171 H80        -5.6490   -3.7730   -1.5390 hn        1 MOL      0.354272
    172 H81        -3.9630   -1.8880   -2.8930 h1        1 MOL      0.104890
    173 H82        -3.8800   -4.9230   -2.7840 hc        1 MOL      0.009431
    174 H83        -2.8170   -3.9580   -3.8110 hc        1 MOL      0.009431
    175 H84        -4.6790   -2.8880   -4.9470 hc        1 MOL      0.024254
    176 H85        -5.8540   -3.7820   -3.8720 hc        1 MOL      0.024254
    177 N15        -2.1980   -3.3420   -0.4010 n         1 MOL     -0.154773
    178 C54        -2.7380   -4.6240    0.0960 c3        1 MOL      0.015118
    179 H86        -2.1300   -5.4450   -0.2830 h1        1 MOL      0.017871
    180 H87        -2.7170   -4.6300    1.1860 h1        1 MOL      0.017871
    181 H88        -3.7650   -4.7440   -0.2490 h1        1 MOL      0.017871
    182 H89        -1.4500   -2.8720    0.0890 hn        1 MOL      0.262643
    183 Ca1        -0.3660    0.5620   -1.1650 Ca        1 MOL      1.758997
    184 O25        -2.1810    0.7080   -3.4140 oh        1 MOL     -0.835949
    185 H90        -3.0790    0.7770   -3.7280 ho        1 MOL      0.388638
    186 H91        -1.6740    1.2610   -4.0060 ho        1 MOL      0.388638
    187 O26         0.8020   -0.8120   -3.2110 oh        1 MOL     -0.835949
    188 H92         0.3180   -1.4250   -3.7680 ho        1 MOL      0.388638
    189 H93         1.3350   -0.3030   -3.8190 ho        1 MOL      0.388638
    190 O27        -2.9380    0.8590   -0.4020 oh        1 MOL     -0.835949
    191 H94        -3.6940    0.3600   -0.0930 ho        1 MOL      0.388638
    192 H95        -3.3020    1.4840   -1.0220 ho        1 MOL      0.388638
@<TRIPOS>BOND
     1    1    2 1   
     2    1    4 1   
     3    1    5 1   
     4    1    6 1   
     5    2    3 2   
     6    2    7 1   
     7    7    8 1   
     8    7   15 1   
     9    8    9 1   
    10    8   11 1   
    11    8   16 1   
    12    9   10 2   
    13    9   19 1   
    14   11   12 1   
    15   11   17 1   
    16   11   18 1   
    17   12   13 1   
    18   12   14 1   
    19   19   20 1   
    20   19   28 1   
    21   20   21 1   
    22   20   23 1   
    23   20   29 1   
    24   21   22 2   
    25   21   41 1   
    26   23   24 1   
    27   23   30 1   
    28   23   31 1   
    29   24   25 1   
    30   24   32 1   
    31   24   33 1   
    32   25   26 1   
    33   25   34 1   
    34   25   35 1   
    35   26   27 1   
    36   26   36 1   
    37   26   37 1   
    38   27   38 1   
    39   27   39 1   
    40   27   40 1   
    41   41   42 1   
    42   41   49 1   
    43   42   43 1   
    44   42   45 1   
    45   42   50 1   
    46   43   44 2   
    47   43   53 1   
    48   45   46 1   
    49   45   51 1   
    50   45   52 1   
    51   46   47 1   
    52   46   48 1   
    53   53   54 1   
    54   53   57 1   
    55   54   55 1   
    56   54   58 1   
    57   54   59 1   
    58   55   56 2   
    59   55   60 1   
    60   60   61 1   
    61   60   68 1   
    62   61   62 1   
    63   61   64 1   
    64   61   69 1   
    65   62   63 2   
    66   62   72 1   
    67   64   65 1   
    68   64   70 1   
    69   64   71 1   
    70   65   66 1   
    71   65   67 1   
    72   72   73 1   
    73   72   76 1   
    74   73   74 1   
    75   73   77 1   
    76   73   78 1   
    77   74   75 2   
    78   74   79 1   
    79   79   80 1   
    80   79   86 1   
    81   80   81 1   
    82   80   83 1   
    83   80   87 1   
    84   81   82 2   
    85   81   93 1   
    86   83   84 1   
    87   83   85 1   
    88   83   88 1   
    89   84   90 1   
    90   84   91 1   
    91   84   92 1   
    92   85   89 1   
    93   93   94 1   
    94   93  101 1   
    95   94   95 1   
    96   94   97 1   
    97   94  102 1   
    98   95   96 2   
    99   95  112 1   
   100   97   98 1   
   101   97   99 1   
   102   97  103 1   
   103   98  100 1   
   104   98  104 1   
   105   98  105 1   
   106   99  106 1   
   107   99  107 1   
   108   99  108 1   
   109  100  109 1   
   110  100  110 1   
   111  100  111 1   
   112  112  113 1   
   113  112  119 1   
   114  113  114 1   
   115  113  116 1   
   116  113  120 1   
   117  114  115 2   
   118  114  126 1   
   119  116  117 1   
   120  116  118 1   
   121  116  121 1   
   122  117  123 1   
   123  117  124 1   
   124  117  125 1   
   125  118  122 1   
   126  126  127 1   
   127  126  133 1   
   128  127  128 1   
   129  127  130 1   
   130  127  134 1   
   131  128  129 2   
   132  128  140 1   
   133  130  131 1   
   134  130  132 1   
   135  130  135 1   
   136  131  137 1   
   137  131  138 1   
   138  131  139 1   
   139  132  136 1   
   140  140  141 1   
   141  140  149 1   
   142  141  142 1   
   143  141  144 1   
   144  141  150 1   
   145  142  143 2   
   146  142  162 1   
   147  144  145 1   
   148  144  151 1   
   149  144  152 1   
   150  145  146 1   
   151  145  153 1   
   152  145  154 1   
   153  146  147 1   
   154  146  155 1   
   155  146  156 1   
   156  147  148 1   
   157  147  157 1   
   158  147  158 1   
   159  148  159 1   
   160  148  160 1   
   161  148  161 1   
   162  162  163 1   
   163  162  171 1   
   164  163  164 1   
   165  163  166 1   
   166  163  172 1   
   167  164  165 2   
   168  164  177 1   
   169  166  167 1   
   170  166  173 1   
   171  166  174 1   
   172  167  168 1   
   173  167  175 1   
   174  167  176 1   
   175  168  169 1   
   176  168  170 1   
   177  177  178 1   
   178  177  182 1   
   179  178  179 1   
   180  178  180 1   
   181  178  181 1   
   182  184  185 1   
   183  184  186 1   
   184  187  188 1   
   185  187  189 1   
   186  190  191 1   
   187  190  192 1   
@<TRIPOS>SUBSTRUCTURE
     1 MOL         1 TEMP              0 ****  ****    0 ROOT
