@<TRIPOS>MOLECULE
MOL
  192   187     1     0     0
SMALL
resp


@<TRIPOS>ATOM
      1 C1         10.0050    1.5230    0.8630 c3        1 MOL     -0.604813
      2 C2          8.7360    1.0390    0.1400 c         1 MOL      0.808821
      3 O1          7.6630    1.0630    0.7210 o         1 MOL     -0.693701
      4 H1         10.1480    0.9420    1.7730 hc        1 MOL      0.150270
      5 H2         10.8680    1.3930    0.2100 hc        1 MOL      0.150270
      6 H3          9.8980    2.5770    1.1190 hc        1 MOL      0.150270
      7 N1          8.8640    0.5120   -1.0550 n         1 MOL     -0.527093
      8 C3          7.8540    0.0350   -2.0420 c3        1 MOL      0.002992
      9 C4          7.2040   -1.3400   -1.5920 c         1 MOL      0.373723
     10 O2          6.8090   -2.1610   -2.4020 o         1 MOL     -0.408360
     11 C5          8.3780    0.0610   -3.5030 c3        1 MOL     -0.183555
     12 C6          9.6620   -0.7720   -3.6630 c         1 MOL      0.728002
     13 O3         10.3330   -0.7400   -4.7120 o         1 MOL     -0.635543
     14 O4         10.1080   -1.5190   -2.6790 o         1 MOL     -0.635543
     15 H4          9.8280    0.3950   -1.3260 hn        1 MOL      0.255831
     16 H5          7.0780    0.8070   -2.0590 h1        1 MOL      0.125422
     17 H6          8.5260    1.0630   -3.9070 hc        1 MOL      0.075756
     18 H7          7.6490   -0.4440   -4.1390 hc        1 MOL      0.075756
     19 N2          7.2770   -1.7020   -0.2870 n         1 MOL     -0.351984
     20 C7          6.7440   -2.9430    0.3150 c3        1 MOL      0.106302
     21 C8          5.2320   -3.2070    0.0380 c         1 MOL      0.421627
     22 O5          4.9910   -4.3430   -0.3900 o         1 MOL     -0.531079
     23 C9          7.0470   -2.8460    1.8290 c3        1 MOL     -0.056069
     24 C10         8.5070   -3.0710    2.2390 c3        1 MOL      0.116014
     25 C11         8.7610   -3.3390    3.7610 c3        1 MOL     -0.041875
     26 C12        10.2310   -2.9170    4.2240 c3        1 MOL      0.051015
     27 N3         10.5440   -3.0720    5.6740 n4        1 MOL     -0.289563
     28 H8          7.4810   -0.9870    0.3980 hn        1 MOL      0.298189
     29 H9          7.3010   -3.8030   -0.0510 h1        1 MOL      0.098269
     30 H10         6.4890   -3.5900    2.4070 hc        1 MOL      0.011204
     31 H11         6.8220   -1.8360    2.1740 hc        1 MOL      0.011204
     32 H12         9.0040   -2.1410    1.9440 hc        1 MOL     -0.024442
     33 H13         9.0250   -3.7980    1.6050 hc        1 MOL     -0.024442
     34 H14         8.4570   -4.3820    3.9060 hc        1 MOL      0.030179
     35 H15         8.1020   -2.7940    4.4280 hc        1 MOL      0.030179
     36 H16        10.4120   -1.8840    3.9190 hx        1 MOL      0.068239
     37 H17        10.8830   -3.5750    3.6420 hx        1 MOL      0.068239
     38 H18         9.8660   -2.5100    6.1720 hn        1 MOL      0.270083
     39 H19        10.4420   -4.0380    5.9690 hn        1 MOL      0.270083
     40 H20        11.4620   -2.7130    5.8920 hn        1 MOL      0.270083
     41 N4          4.2680   -2.2920    0.1210 n         1 MOL     -0.358056
     42 C13         4.2830   -1.0050    0.8100 c3        1 MOL      0.002234
     43 C14         4.1310    0.1860   -0.1120 c         1 MOL      0.247986
     44 O6          3.9920    0.1270   -1.3270 o         1 MOL     -0.413393
     45 C15         3.2080   -1.0890    1.9140 c3        1 MOL     -0.073647
     46 C16         1.8100   -1.5590    1.4230 c         1 MOL      0.626523
     47 O7          1.1430   -0.7080    0.7980 o         1 MOL     -0.648713
     48 O8          1.5690   -2.7520    1.5840 o         1 MOL     -0.648713
     49 H21         3.3970   -2.6300   -0.2580 hn        1 MOL      0.358532
     50 H22         5.2940   -0.8820    1.1950 h1        1 MOL      0.056546
     51 H23         3.1210   -0.1940    2.5290 hc        1 MOL     -0.007147
     52 H24         3.6480   -1.8220    2.5940 hc        1 MOL     -0.007147
     53 N5          4.1120    1.3600    0.5030 n         1 MOL     -0.082010
     54 C17         3.8960    2.7380   -0.1960 c3        1 MOL     -0.360363
     55 C18         2.4640    2.9420   -0.6340 c         1 MOL      0.742644
     56 O9          1.5180    2.2340   -0.2220 o         1 MOL     -0.752442
     57 H25         4.2380    1.2630    1.5030 hn        1 MOL      0.217619
     58 H26         4.5090    2.7910   -1.0890 h1        1 MOL      0.150370
     59 H27         4.1480    3.4720    0.5740 h1        1 MOL      0.150370
     60 N6          2.4590    3.9800   -1.4440 n         1 MOL     -0.405283
     61 C19         1.2730    4.6650   -2.0120 c3        1 MOL      0.328243
     62 C20         1.4790    6.1740   -2.0880 c         1 MOL      0.393395
     63 O10         2.6430    6.6180   -1.9110 o         1 MOL     -0.534116
     64 C21         0.9350    4.2460   -3.4330 c3        1 MOL     -0.476298
     65 C22         0.8980    2.7200   -3.6180 c         1 MOL      0.670457
     66 O11         0.0760    2.0740   -2.9280 o         1 MOL     -0.623466
     67 O12         1.8740    2.1160   -4.0960 o         1 MOL     -0.623466
     68 H28         3.3510    4.4350   -1.5910 hn        1 MOL      0.275503
     69 H29         0.4080    4.5150   -1.3640 h1        1 MOL     -0.000377
     70 H30         1.6690    4.7250   -4.0690 hc        1 MOL      0.108129
     71 H31        -0.0010    4.6510   -3.8190 hc        1 MOL      0.108129
     72 N7          0.4840    7.0740   -2.2350 n         1 MOL     -0.379063
     73 C23        -1.0220    6.8670   -2.2530 c3        1 MOL     -0.071673
     74 C24        -1.5000    6.0490   -1.0630 c         1 MOL      0.638690
     75 O13        -1.0840    6.3780    0.0790 o         1 MOL     -0.531701
     76 H32         0.7710    8.0180   -2.4260 hn        1 MOL      0.310290
     77 H33        -1.1990    6.3390   -3.1840 h1        1 MOL      0.063967
     78 H34        -1.5250    7.8290   -2.2870 h1        1 MOL      0.063967
     79 N8         -2.4750    5.1600   -1.3460 n         1 MOL     -0.571727
     80 C25        -3.2840    4.4630   -0.2750 c3        1 MOL     -0.009697
     81 C26        -2.4100    3.4520    0.4280 c         1 MOL      0.763690
     82 O14        -1.6070    2.7760   -0.1960 o         1 MOL     -0.758131
     83 C27        -4.5500    3.8840   -0.9240 c3        1 MOL      0.367022
     84 C28        -5.4240    4.9310   -1.6250 c3        1 MOL     -0.086357
     85 O15        -5.5590    3.4200   -0.0500 oh        1 MOL     -0.671056
     86 H35        -2.6300    5.0490   -2.3380 hn        1 MOL      0.318079
     87 H36        -3.6350    5.2590    0.3930 h1        1 MOL      0.105804
     88 H37        -4.2600    3.1360   -1.6690 h1        1 MOL     -0.012848
     89 H38        -6.2100    2.9520   -0.5750 ho        1 MOL      0.403115
     90 H39        -4.8080    5.6880   -2.1110 hc        1 MOL      0.017869
     91 H40        -5.9910    4.4780   -2.4420 hc        1 MOL      0.017869
     92 H41        -6.1620    5.4540   -1.0160 hc        1 MOL      0.017869
     93 N9         -2.5450    3.4730    1.7860 n         1 MOL     -0.754620
     94 C29        -1.7580    2.7380    2.7660 c3        1 MOL      0.257441
     95 C30        -1.9670    1.1990    2.6660 c         1 MOL      0.459783
     96 O16        -1.5390    0.5660    1.7200 o         1 MOL     -0.556646
     97 C31        -0.2430    3.2210    2.6110 c3        1 MOL      0.074537
     98 C32         0.0850    4.7060    2.7350 c3        1 MOL      0.331183
     99 C33         0.6300    2.3460    3.6230 c3        1 MOL     -0.436162
    100 C34         0.0470    5.2330    4.1880 c3        1 MOL     -0.362279
    101 H42        -3.3680    3.9790    2.1040 hn        1 MOL      0.351275
    102 H43        -1.9740    2.9560    3.8080 h1        1 MOL     -0.007765
    103 H44         0.1870    2.9010    1.6610 hc        1 MOL      0.115827
    104 H45        -0.7120    5.1910    2.1960 hc        1 MOL     -0.050262
    105 H46         1.0080    4.9790    2.2290 hc        1 MOL     -0.050262
    106 H47         0.1240    2.2600    4.5850 hc        1 MOL      0.097434
    107 H48         0.6980    1.3640    3.1680 hc        1 MOL      0.097434
    108 H49         1.6470    2.7290    3.7220 hc        1 MOL      0.097434
    109 H50        -0.8160    4.8980    4.7590 hc        1 MOL      0.070663
    110 H51         0.9080    4.8000    4.6980 hc        1 MOL      0.070663
    111 H52        -0.0480    6.3150    4.0740 hc        1 MOL      0.070663
    112 N10        -2.6400    0.6600    3.6520 n         1 MOL     -0.250139
    113 C35        -2.7910   -0.7450    3.9100 c3        1 MOL     -0.088954
    114 C36        -4.1040   -1.3010    3.3530 c         1 MOL      0.503704
    115 O17        -4.1380   -2.5080    3.0530 o         1 MOL     -0.554310
    116 C37        -2.7720   -1.0710    5.4430 c3        1 MOL      0.285647
    117 C38        -3.7530   -0.3000    6.3250 c3        1 MOL     -0.321479
    118 O18        -1.4500   -0.5320    5.7910 oh        1 MOL     -0.632408
    119 H53        -3.1700    1.2720    4.2580 hn        1 MOL      0.226513
    120 H54        -1.9110   -1.2450    3.5100 h1        1 MOL      0.145862
    121 H55        -2.6980   -2.1370    5.6240 h1        1 MOL      0.039848
    122 H56        -0.8160   -1.1650    5.4600 ho        1 MOL      0.406602
    123 H57        -3.5600    0.7530    6.1110 hc        1 MOL      0.103935
    124 H58        -4.7630   -0.5760    6.0600 hc        1 MOL      0.103935
    125 H59        -3.6640   -0.4430    7.4000 hc        1 MOL      0.103935
    126 N11        -5.1160   -0.4830    2.9670 n         1 MOL     -0.239041
    127 C39        -6.2980   -1.0570    2.3430 c3        1 MOL     -0.160970
    128 C40        -5.9810   -1.4950    0.8730 c         1 MOL      0.750077
    129 O19        -5.3750   -0.7200    0.1040 o         1 MOL     -0.537432
    130 C41        -7.5370   -0.1830    2.5170 c3        1 MOL      0.092506
    131 C42        -8.0720   -0.1680    3.9230 c3        1 MOL     -0.283465
    132 O20        -7.1870    1.1880    2.3090 oh        1 MOL     -0.563740
    133 H60        -5.1000    0.5030    3.1600 hn        1 MOL      0.233040
    134 H61        -6.5150   -2.0100    2.8260 h1        1 MOL      0.115704
    135 H62        -8.3230   -0.4720    1.8090 h1        1 MOL      0.104091
    136 H63        -8.0100    1.6670    2.3080 ho        1 MOL      0.402414
    137 H64        -7.2920    0.1130    4.6320 hc        1 MOL      0.084567
    138 H65        -9.0150    0.3740    4.0620 hc        1 MOL      0.084567
    139 H66        -8.4260   -1.1870    4.1000 hc        1 MOL      0.084567
    140 N12        -6.4800   -2.5710    0.3370 n         1 MOL     -0.692854
    141 C43        -6.5280   -2.9880   -1.0180 c3        1 MOL      0.432169
    142 C44        -5.0950   -3.0730   -1.6240 c         1 MOL      0.379946
    143 O21        -4.9450   -2.6240   -2.7710 o         1 MOL     -0.540858
    144 C45        -7.5790   -2.2100   -1.7890 c3        1 MOL     -0.624013
    145 C46        -9.0070   -2.3480   -1.2440 c3        1 MOL      0.401485
    146 C47       -10.0730   -1.6160   -2.1480 c3        1 MOL     -0.130218
    147 C48       -11.5100   -1.6520   -1.6230 c3        1 MOL      0.085244
    148 N13       -12.4350   -0.8910   -2.4820 n4        1 MOL     -0.104462
    149 H67        -7.1430   -3.0870    0.9140 hn        1 MOL      0.280225
    150 H68        -6.8550   -4.0260   -1.1240 h1        1 MOL      0.017436
    151 H69        -7.6470   -2.6450   -2.7840 hc        1 MOL      0.175274
    152 H70        -7.2730   -1.1650   -1.8320 hc        1 MOL      0.175274
    153 H71        -9.0230   -1.8230   -0.2860 hc        1 MOL     -0.070883
    154 H72        -9.2280   -3.3960   -1.0540 hc        1 MOL     -0.070883
    155 H73        -9.9510   -2.0680   -3.1310 hc        1 MOL      0.044337
    156 H74        -9.7230   -0.5750   -2.2000 hc        1 MOL      0.044337
    157 H75       -11.6120   -1.4140   -0.5710 hx        1 MOL      0.039944
    158 H76       -11.7900   -2.7060   -1.6480 hx        1 MOL      0.039944
    159 H77       -13.4160   -0.9330   -2.2410 hn        1 MOL      0.159466
    160 H78       -12.2320    0.0940   -2.4780 hn        1 MOL      0.159466
    161 H79       -12.3860   -1.1860   -3.4470 hn        1 MOL      0.159466
    162 N14        -4.0820   -3.6000   -0.9470 n         1 MOL     -0.389664
    163 C49        -2.7380   -3.7240   -1.6010 c3        1 MOL      0.306508
    164 C50        -1.5360   -3.1310   -0.8040 c         1 MOL      0.342297
    165 O22        -1.0150   -2.1000   -1.1770 o         1 MOL     -0.575369
    166 C51        -2.5320   -5.2280   -1.9630 c3        1 MOL      0.031938
    167 C52        -3.3130   -5.4390   -3.2490 c3        1 MOL     -0.277293
    168 C53        -2.9820   -6.8980   -3.6740 c         1 MOL      0.662034
    169 O23        -3.7140   -7.8190   -3.2090 o         1 MOL     -0.612665
    170 O24        -1.9150   -7.1360   -4.2920 o         1 MOL     -0.612665
    171 H80        -4.2500   -4.1840   -0.1360 hn        1 MOL      0.267209
    172 H81        -2.7790   -3.2720   -2.5870 h1        1 MOL      0.091265
    173 H82        -2.9590   -5.8700   -1.1870 hc        1 MOL      0.028414
    174 H83        -1.5150   -5.5700   -2.1510 hc        1 MOL      0.028414
    175 H84        -3.1100   -4.7460   -4.0690 hc        1 MOL      0.049756
    176 H85        -4.3720   -5.3680   -2.9840 hc        1 MOL      0.049756
    177 N15        -0.9060   -3.8100    0.1390 n         1 MOL     -0.338534
    178 C54        -1.2600   -5.0420    0.9320 c3        1 MOL      0.012413
    179 H86        -1.5740   -4.7500    1.9340 h1        1 MOL      0.030727
    180 H87        -2.0740   -5.5730    0.4370 h1        1 MOL      0.030727
    181 H88        -0.3890   -5.6940    1.0000 h1        1 MOL      0.030727
    182 H89        -0.1460   -3.3120    0.5740 hn        1 MOL      0.308489
    183 Ca1        -0.4990    0.5600   -0.7910 Ca        1 MOL      1.773504
    184 O25        -3.2610    0.4010   -1.0090 oh        1 MOL     -0.786483
    185 H90        -3.6990    1.0540   -1.5630 ho        1 MOL      0.369619
    186 H91        -3.9690   -0.0050   -0.5150 ho        1 MOL      0.369619
    187 O26         1.5660   -0.1090   -2.2560 oh        1 MOL     -0.786483
    188 H92         1.6210    0.5560   -2.9470 ho        1 MOL      0.369619
    189 H93         2.4690   -0.1940   -1.9290 ho        1 MOL      0.369619
    190 O27        -1.2880   -0.2750   -3.6930 oh        1 MOL     -0.786483
    191 H94        -1.3200    0.4390   -4.3220 ho        1 MOL      0.369619
    192 H95        -2.1530   -0.6860   -3.7530 ho        1 MOL      0.369619
@<TRIPOS>BOND
     1    1    2 1   
     2    1    4 1   
     3    1    5 1   
     4    1    6 1   
     5    2    3 2   
     6    2    7 1   
     7    7    8 1   
     8    7   15 1   
     9    8    9 1   
    10    8   11 1   
    11    8   16 1   
    12    9   10 2   
    13    9   19 1   
    14   11   12 1   
    15   11   17 1   
    16   11   18 1   
    17   12   13 1   
    18   12   14 1   
    19   19   20 1   
    20   19   28 1   
    21   20   21 1   
    22   20   23 1   
    23   20   29 1   
    24   21   22 2   
    25   21   41 1   
    26   23   24 1   
    27   23   30 1   
    28   23   31 1   
    29   24   25 1   
    30   24   32 1   
    31   24   33 1   
    32   25   26 1   
    33   25   34 1   
    34   25   35 1   
    35   26   27 1   
    36   26   36 1   
    37   26   37 1   
    38   27   38 1   
    39   27   39 1   
    40   27   40 1   
    41   41   42 1   
    42   41   49 1   
    43   42   43 1   
    44   42   45 1   
    45   42   50 1   
    46   43   44 2   
    47   43   53 1   
    48   45   46 1   
    49   45   51 1   
    50   45   52 1   
    51   46   47 1   
    52   46   48 1   
    53   53   54 1   
    54   53   57 1   
    55   54   55 1   
    56   54   58 1   
    57   54   59 1   
    58   55   56 2   
    59   55   60 1   
    60   60   61 1   
    61   60   68 1   
    62   61   62 1   
    63   61   64 1   
    64   61   69 1   
    65   62   63 2   
    66   62   72 1   
    67   64   65 1   
    68   64   70 1   
    69   64   71 1   
    70   65   66 1   
    71   65   67 1   
    72   72   73 1   
    73   72   76 1   
    74   73   74 1   
    75   73   77 1   
    76   73   78 1   
    77   74   75 2   
    78   74   79 1   
    79   79   80 1   
    80   79   86 1   
    81   80   81 1   
    82   80   83 1   
    83   80   87 1   
    84   81   82 2   
    85   81   93 1   
    86   83   84 1   
    87   83   85 1   
    88   83   88 1   
    89   84   90 1   
    90   84   91 1   
    91   84   92 1   
    92   85   89 1   
    93   93   94 1   
    94   93  101 1   
    95   94   95 1   
    96   94   97 1   
    97   94  102 1   
    98   95   96 2   
    99   95  112 1   
   100   97   98 1   
   101   97   99 1   
   102   97  103 1   
   103   98  100 1   
   104   98  104 1   
   105   98  105 1   
   106   99  106 1   
   107   99  107 1   
   108   99  108 1   
   109  100  109 1   
   110  100  110 1   
   111  100  111 1   
   112  112  113 1   
   113  112  119 1   
   114  113  114 1   
   115  113  116 1   
   116  113  120 1   
   117  114  115 2   
   118  114  126 1   
   119  116  117 1   
   120  116  118 1   
   121  116  121 1   
   122  117  123 1   
   123  117  124 1   
   124  117  125 1   
   125  118  122 1   
   126  126  127 1   
   127  126  133 1   
   128  127  128 1   
   129  127  130 1   
   130  127  134 1   
   131  128  129 2   
   132  128  140 1   
   133  130  131 1   
   134  130  132 1   
   135  130  135 1   
   136  131  137 1   
   137  131  138 1   
   138  131  139 1   
   139  132  136 1   
   140  140  141 1   
   141  140  149 1   
   142  141  142 1   
   143  141  144 1   
   144  141  150 1   
   145  142  143 2   
   146  142  162 1   
   147  144  145 1   
   148  144  151 1   
   149  144  152 1   
   150  145  146 1   
   151  145  153 1   
   152  145  154 1   
   153  146  147 1   
   154  146  155 1   
   155  146  156 1   
   156  147  148 1   
   157  147  157 1   
   158  147  158 1   
   159  148  159 1   
   160  148  160 1   
   161  148  161 1   
   162  162  163 1   
   163  162  171 1   
   164  163  164 1   
   165  163  166 1   
   166  163  172 1   
   167  164  165 2   
   168  164  177 1   
   169  166  167 1   
   170  166  173 1   
   171  166  174 1   
   172  167  168 1   
   173  167  175 1   
   174  167  176 1   
   175  168  169 1   
   176  168  170 1   
   177  177  178 1   
   178  177  182 1   
   179  178  179 1   
   180  178  180 1   
   181  178  181 1   
   182  184  185 1   
   183  184  186 1   
   184  187  188 1   
   185  187  189 1   
   186  190  191 1   
   187  190  192 1   
@<TRIPOS>SUBSTRUCTURE
     1 MOL         1 TEMP              0 ****  ****    0 ROOT
