@<TRIPOS>MOLECULE
MOL
  188   182     1     0     0
SMALL
resp


@<TRIPOS>ATOM
      1 C1          6.1620    0.3250    5.2030 c3        1 MOL     -0.403725
      2 C2          5.4070    0.2960    3.8780 c         1 MOL      0.725727
      3 O1          4.1420    0.2710    3.7990 o         1 MOL     -0.642453
      4 H1          6.7060    1.2650    5.2890 hc        1 MOL      0.106921
      5 H2          5.4530    0.2390    6.0270 hc        1 MOL      0.106921
      6 H3          6.8650   -0.5070    5.2390 hc        1 MOL      0.106921
      7 N1          6.1450    0.2710    2.7470 n         1 MOL     -0.557684
      8 C3          5.5750    0.3360    1.3770 c3        1 MOL     -0.009830
      9 C4          5.0460   -0.9930    0.8110 c         1 MOL      0.363694
     10 O2          4.0240   -1.0300    0.1050 o         1 MOL     -0.465522
     11 C5          6.7320    0.9120    0.5420 c3        1 MOL      0.089694
     12 C6          8.0290    0.0940    0.4180 c         1 MOL      0.625853
     13 O3          8.9650    0.6060   -0.2390 o         1 MOL     -0.665534
     14 O4          8.1330   -1.0410    0.9810 o         1 MOL     -0.665534
     15 H4          7.1280    0.4130    2.9340 hn        1 MOL      0.292903
     16 H5          4.7350    1.0210    1.3980 h1        1 MOL      0.113904
     17 H6          7.1400    1.8260    0.9840 hc        1 MOL     -0.023672
     18 H7          6.3680    1.2030   -0.4410 hc        1 MOL     -0.023672
     19 N2          5.5290   -2.1230    1.3050 n         1 MOL     -0.288291
     20 C7          5.0110   -3.5270    1.1940 c3        1 MOL      0.255541
     21 C8          4.9150   -4.1150   -0.2610 c         1 MOL      0.381659
     22 O5          5.7400   -4.8910   -0.7420 o         1 MOL     -0.538455
     23 C9          5.7890   -4.4860    2.1730 c3        1 MOL     -0.219786
     24 C10         5.5970   -4.1440    3.6560 c3        1 MOL      0.027467
     25 C11         6.4360   -5.0840    4.5320 c3        1 MOL     -0.054995
     26 C12         5.7220   -6.4370    4.5620 c3        1 MOL      0.069869
     27 N3          6.3600   -7.2750    5.5830 n4        1 MOL     -0.368392
     28 H8          6.4100   -2.0470    1.7940 hn        1 MOL      0.236780
     29 H9          4.0320   -3.5490    1.6760 h1        1 MOL      0.010771
     30 H10         6.8330   -4.3880    1.8740 hc        1 MOL      0.078265
     31 H11         5.4110   -5.4870    1.9540 hc        1 MOL      0.078265
     32 H12         4.5460   -4.2290    3.9210 hc        1 MOL      0.015666
     33 H13         5.9150   -3.1070    3.7610 hc        1 MOL      0.015666
     34 H14         6.5160   -4.6990    5.5440 hc        1 MOL      0.044305
     35 H15         7.4430   -5.3080    4.1640 hc        1 MOL      0.044305
     36 H16         5.8460   -7.0000    3.6290 hx        1 MOL      0.082892
     37 H17         4.6540   -6.3240    4.7000 hx        1 MOL      0.082892
     38 H18         6.2730   -6.8450    6.4860 hn        1 MOL      0.318311
     39 H19         5.9900   -8.2160    5.6420 hn        1 MOL      0.318311
     40 H20         7.3560   -7.3530    5.4430 hn        1 MOL      0.318311
     41 N4          3.9400   -3.6070   -0.9650 n         1 MOL     -0.228298
     42 C13         3.5360   -3.9640   -2.3440 c3        1 MOL      0.152825
     43 C14         4.1550   -3.0550   -3.4640 c         1 MOL      0.566963
     44 O6          3.9990   -3.2800   -4.5880 o         1 MOL     -0.539016
     45 C15         2.0190   -4.1170   -2.4860 c3        1 MOL     -0.295471
     46 C16         1.2280   -2.9330   -1.8580 c         1 MOL      0.712483
     47 O7          1.0090   -2.8750   -0.5920 o         1 MOL     -0.721005
     48 O8          0.8440   -1.9750   -2.5310 o         1 MOL     -0.721005
     49 H21         3.3160   -2.9770   -0.4910 hn        1 MOL      0.050845
     50 H22         4.0010   -4.9010   -2.6720 h1        1 MOL      0.041904
     51 H23         1.7070   -4.9990   -1.9210 hc        1 MOL      0.078025
     52 H24         1.7120   -4.2550   -3.5160 hc        1 MOL      0.078025
     53 N5          4.7540   -1.9750   -2.9410 n         1 MOL     -0.383553
     54 C17         5.4070   -1.0210   -3.8350 c3        1 MOL     -0.216418
     55 C18         6.5730   -0.3380   -3.0960 c         1 MOL      0.400097
     56 O9          7.5030   -0.9720   -2.6190 o         1 MOL     -0.440999
     57 H25         4.7510   -1.8530   -1.9400 hn        1 MOL      0.325622
     58 H26         4.6450   -0.3100   -4.1330 h1        1 MOL      0.153581
     59 H27         5.8310   -1.4990   -4.7180 h1        1 MOL      0.153581
     60 N6          6.6020    1.0260   -2.9160 n         1 MOL     -0.193592
     61 C19         5.5830    2.0430   -3.2740 c3        1 MOL     -0.011714
     62 C20         5.7630    3.3840   -2.4480 c         1 MOL      0.453578
     63 O10         6.7310    4.0970   -2.5340 o         1 MOL     -0.503347
     64 C21         5.7520    2.3170   -4.7780 c3        1 MOL     -0.333972
     65 C22         4.7390    3.4660   -5.1900 c         1 MOL      0.705257
     66 N7          5.1310    4.5940   -5.5620 n         1 MOL     -0.718225
     67 O11         3.5730    3.2060   -5.1730 o         1 MOL     -0.595557
     68 H28         7.5100    1.4500   -2.7720 hn        1 MOL      0.254466
     69 H29         4.5700    1.6790   -3.0820 h1        1 MOL      0.112763
     70 H30         5.3990    1.4570   -5.3490 hc        1 MOL      0.084729
     71 H31         6.7940    2.5930   -4.9520 hc        1 MOL      0.084729
     72 H32         6.1100    4.7410   -5.7100 hn        1 MOL      0.352361
     73 H33         4.4180    5.2060   -5.9430 hn        1 MOL      0.352361
     74 N8          4.8140    3.8490   -1.6240 n         1 MOL     -0.385255
     75 C23         3.5920    3.0950   -1.3200 c3        1 MOL     -0.076630
     76 C24         2.7270    3.8650   -0.3970 c         1 MOL      0.664279
     77 O12         3.1170    4.9340    0.1290 o         1 MOL     -0.558970
     78 H34         4.9630    4.7410   -1.1740 hn        1 MOL      0.295862
     79 H35         3.8640    2.1880   -0.7840 h1        1 MOL      0.029530
     80 H36         2.9750    2.8350   -2.1790 h1        1 MOL      0.029530
     81 N9          1.5520    3.3380   -0.1610 n         1 MOL     -0.561403
     82 C25         0.5040    3.8160    0.8060 c3        1 MOL      0.101116
     83 C26        -0.6360    2.7550    0.9080 c         1 MOL      0.433607
     84 O13        -0.7840    1.7960    0.1110 o         1 MOL     -0.537285
     85 C27        -0.0810    5.1650    0.3990 c3        1 MOL     -0.065635
     86 C28        -0.8550    5.8930    1.4870 ca        1 MOL      0.023454
     87 C29        -2.1730    6.3200    1.3810 ca        1 MOL     -0.108352
     88 C30        -0.1220    6.1990    2.6530 ca        1 MOL     -0.108352
     89 C31        -2.7460    7.1010    2.3820 ca        1 MOL     -0.310250
     90 C32        -0.6860    6.9830    3.6590 ca        1 MOL     -0.310250
     91 C33        -2.0350    7.3460    3.5370 ca        1 MOL      0.391190
     92 O14        -2.6600    7.9550    4.5890 oh        1 MOL     -0.477096
     93 H37         1.3240    2.4980   -0.6690 hn        1 MOL      0.301387
     94 H38         0.9080    3.8890    1.8150 h1        1 MOL      0.064842
     95 H39        -0.6000    5.1460   -0.5560 hc        1 MOL      0.070194
     96 H40         0.7880    5.7580    0.1070 hc        1 MOL      0.070194
     97 H41        -2.7440    6.1500    0.4850 ha        1 MOL      0.126963
     98 H42         0.8930    5.8420    2.7530 ha        1 MOL      0.126963
     99 H43        -3.7330    7.5360    2.2780 ha        1 MOL      0.165237
    100 H44        -0.1050    7.1930    4.5400 ha        1 MOL      0.165237
    101 H45        -2.0360    7.8040    5.2970 ho        1 MOL      0.336299
    102 N10        -1.4760    2.8410    1.8630 n         1 MOL     -0.288051
    103 C34        -2.6620    1.9950    2.0810 c3        1 MOL      0.067529
    104 C35        -3.7140    2.3630    0.9960 c         1 MOL      0.398225
    105 O15        -3.9820    3.5370    0.8140 o         1 MOL     -0.496560
    106 C36        -3.3000    2.1120    3.4670 c3        1 MOL      0.239614
    107 C37        -2.5660    1.2540    4.5210 c3        1 MOL     -0.052862
    108 C38        -3.3010    3.5740    4.0020 c3        1 MOL     -0.284071
    109 C39        -3.3120    1.1750    5.8830 c3        1 MOL     -0.180583
    110 H46        -1.4610    3.6130    2.5190 hn        1 MOL      0.149815
    111 H47        -2.3570    0.9550    1.9150 h1        1 MOL     -0.046870
    112 H48        -4.3190    1.7290    3.4700 hc        1 MOL      0.016837
    113 H49        -1.5430    1.6120    4.6180 hc        1 MOL      0.023864
    114 H50        -2.5630    0.2630    4.0560 hc        1 MOL      0.023864
    115 H51        -2.3250    3.9730    4.2820 hc        1 MOL      0.069443
    116 H52        -3.6300    4.2940    3.2470 hc        1 MOL      0.069443
    117 H53        -3.8560    3.6170    4.9390 hc        1 MOL      0.069443
    118 H54        -2.7830    0.5340    6.5970 hc        1 MOL      0.049802
    119 H55        -3.3220    2.1340    6.3930 hc        1 MOL      0.049802
    120 H56        -4.3360    0.8160    5.7130 hc        1 MOL      0.049802
    121 N11        -4.4180    1.3670    0.4970 n         1 MOL     -0.304882
    122 C40        -5.6350    1.6150   -0.3150 c3        1 MOL      0.178949
    123 C41        -5.7880    0.7040   -1.6000 c         1 MOL      0.210866
    124 O16        -5.1960   -0.3280   -1.6790 o         1 MOL     -0.220564
    125 C42        -6.8910    1.6470    0.5640 c3        1 MOL     -0.221295
    126 O17        -7.2310    0.2870    0.8760 oh        1 MOL     -0.432154
    127 H57        -4.0970    0.4190    0.5650 hn        1 MOL      0.221904
    128 H58        -5.6760    2.6390   -0.6950 h1        1 MOL      0.031527
    129 H59        -7.7290    1.9480   -0.0600 h1        1 MOL      0.128210
    130 H60        -6.7690    2.2300    1.4690 h1        1 MOL      0.128210
    131 H61        -7.9190    0.2500    1.5450 ho        1 MOL      0.392720
    132 N12        -6.4890    1.2340   -2.6380 n         1 MOL     -0.442044
    133 C43        -7.0120    0.4210   -3.7850 c3        1 MOL      0.032321
    134 C44        -7.7020   -0.7890   -3.2580 c         1 MOL      0.489033
    135 O18        -7.4190   -1.9140   -3.5750 o         1 MOL     -0.432549
    136 C45        -5.8250    0.2860   -4.7520 c3        1 MOL     -0.206628
    137 H62        -6.7460    2.2080   -2.6270 hn        1 MOL      0.320581
    138 H63        -7.7660    1.0360   -4.2940 h1        1 MOL      0.096176
    139 H64        -4.9890   -0.2720   -4.3210 hc        1 MOL      0.077724
    140 H65        -6.0340   -0.2180   -5.6980 hc        1 MOL      0.077724
    141 H66        -5.4800    1.2430   -5.1410 hc        1 MOL      0.077724
    142 N13        -8.6960   -0.5140   -2.3860 n         1 MOL     -0.588988
    143 C46        -9.5680   -1.3620   -1.5700 c3        1 MOL      0.613739
    144 C47        -8.8440   -2.6680   -1.1330 c         1 MOL      0.040697
    145 O19        -9.4390   -3.7510   -1.1890 o         1 MOL     -0.442239
    146 C48       -10.8400   -1.5120   -2.3700 c3        1 MOL     -0.537481
    147 H67        -8.7940    0.4590   -2.1460 hn        1 MOL      0.271531
    148 H68        -9.9280   -0.8350   -0.6940 h1        1 MOL     -0.054607
    149 H69       -10.5770   -2.1030   -3.2380 hc        1 MOL      0.137831
    150 H70       -11.5270   -2.2100   -1.8890 hc        1 MOL      0.137831
    151 H71       -11.2920   -0.5640   -2.6520 hc        1 MOL      0.137831
    152 N14        -7.5690   -2.5650   -0.6720 n         1 MOL      0.285871
    153 C49        -6.8300   -3.7520   -0.1820 c3        1 MOL     -0.087994
    154 C50        -7.3250   -4.2030    1.2240 c         1 MOL      0.421643
    155 O20        -7.3090   -5.3910    1.4570 o         1 MOL     -0.502001
    156 C51        -5.3390   -3.4660   -0.1230 c3        1 MOL     -0.057960
    157 C52        -4.8130   -2.4300    0.9300 c3        1 MOL      0.080486
    158 C53        -3.2880   -2.2010    0.6640 c         1 MOL      0.699842
    159 O21        -2.9630   -0.9940    0.5250 o         1 MOL     -0.691090
    160 O22        -2.4480   -3.0980    0.6710 o         1 MOL     -0.691090
    161 H72        -7.1010   -1.6760   -0.5540 hn        1 MOL     -0.233032
    162 H73        -7.0630   -4.5680   -0.8640 h1        1 MOL      0.115703
    163 H74        -4.9700   -3.1130   -1.0830 hc        1 MOL      0.030578
    164 H75        -4.8890   -4.3910    0.2270 hc        1 MOL      0.030578
    165 H76        -4.8740   -2.7750    1.9640 hc        1 MOL     -0.037700
    166 H77        -5.4010   -1.5180    0.8720 hc        1 MOL     -0.037700
    167 N15        -7.8570   -3.3190    2.0940 n         1 MOL     -0.204869
    168 C54        -8.1670   -3.6280    3.5090 c3        1 MOL     -0.088853
    169 H78        -7.7840   -2.8310    4.1470 h1        1 MOL      0.066035
    170 H79        -9.2480   -3.7060    3.6360 h1        1 MOL      0.066035
    171 H80        -7.6990   -4.5720    3.7870 h1        1 MOL      0.066035
    172 H81        -8.0050   -2.3680    1.7610 hn        1 MOL      0.144385
    173 Ca1        -0.6620   -0.8100   -0.5610 Ca        1 MOL      1.712705
    174 O23        -0.2020   -1.6290    2.0220 oh        1 MOL     -0.789580
    175 H82        -0.2620   -2.5740    2.1020 ho        1 MOL      0.391941
    176 H83         0.5820   -1.3870    2.5210 ho        1 MOL      0.391941
    177 O24         1.8010    0.2460    0.2850 oh        1 MOL     -0.789580
    178 O25         0.4320    1.0270   -2.1780 oh        1 MOL     -0.789580
    179 H84         2.6160   -0.2500    0.3220 ho        1 MOL      0.391941
    180 H85         1.1910    0.8020   -2.7150 ho        1 MOL      0.391941
    181 H86         1.7770    0.7490    1.0940 ho        1 MOL      0.391941
    182 H87         0.1980    1.9220   -2.4460 ho        1 MOL      0.391941
    183 O26        -2.5760    0.2690   -2.2250 oh        1 MOL     -0.789580
    184 H88        -2.7650    1.1710   -2.4900 ho        1 MOL      0.391941
    185 H89        -3.4130   -0.0630   -1.9020 ho        1 MOL      0.391941
    186 O27        -2.1360   -2.8510   -2.2240 oh        1 MOL     -0.789580
    187 H90        -1.8940   -3.0300   -3.1290 ho        1 MOL      0.391941
    188 H91        -2.0300   -3.6840   -1.7740 ho        1 MOL      0.391941
@<TRIPOS>BOND
     1    1    2 1   
     2    1    4 1   
     3    1    5 1   
     4    1    6 1   
     5    2    3 2   
     6    2    7 1   
     7    7    8 1   
     8    7   15 1   
     9    8    9 1   
    10    8   11 1   
    11    8   16 1   
    12    9   10 2   
    13    9   19 1   
    14   11   12 1   
    15   11   17 1   
    16   11   18 1   
    17   12   13 1   
    18   12   14 1   
    19   19   20 1   
    20   19   28 1   
    21   20   21 1   
    22   20   23 1   
    23   20   29 1   
    24   21   22 2   
    25   21   41 1   
    26   23   24 1   
    27   23   30 1   
    28   23   31 1   
    29   24   25 1   
    30   24   32 1   
    31   24   33 1   
    32   25   26 1   
    33   25   34 1   
    34   25   35 1   
    35   26   27 1   
    36   26   36 1   
    37   26   37 1   
    38   27   38 1   
    39   27   39 1   
    40   27   40 1   
    41   41   42 1   
    42   41   49 1   
    43   42   43 1   
    44   42   45 1   
    45   42   50 1   
    46   43   44 2   
    47   43   53 1   
    48   45   46 1   
    49   45   51 1   
    50   45   52 1   
    51   46   47 1   
    52   46   48 1   
    53   53   54 1   
    54   53   57 1   
    55   54   55 1   
    56   54   58 1   
    57   54   59 1   
    58   55   56 2   
    59   55   60 1   
    60   60   61 1   
    61   60   68 1   
    62   61   62 1   
    63   61   64 1   
    64   61   69 1   
    65   62   63 2   
    66   62   74 1   
    67   64   65 1   
    68   64   70 1   
    69   64   71 1   
    70   65   66 1   
    71   65   67 2   
    72   66   72 1   
    73   66   73 1   
    74   74   75 1   
    75   74   78 1   
    76   75   76 1   
    77   75   79 1   
    78   75   80 1   
    79   76   77 2   
    80   76   81 1   
    81   81   82 1   
    82   81   93 1   
    83   82   83 1   
    84   82   85 1   
    85   82   94 1   
    86   83   84 2   
    87   83  102 1   
    88   85   86 1   
    89   85   95 1   
    90   85   96 1   
    91   86   87 ar  
    92   86   88 ar  
    93   87   89 ar  
    94   87   97 1   
    95   88   90 ar  
    96   88   98 1   
    97   89   91 ar  
    98   89   99 1   
    99   90   91 ar  
   100   90  100 1   
   101   91   92 1   
   102   92  101 1   
   103  102  103 1   
   104  102  110 1   
   105  103  104 1   
   106  103  106 1   
   107  103  111 1   
   108  104  105 2   
   109  104  121 1   
   110  106  107 1   
   111  106  108 1   
   112  106  112 1   
   113  107  109 1   
   114  107  113 1   
   115  107  114 1   
   116  108  115 1   
   117  108  116 1   
   118  108  117 1   
   119  109  118 1   
   120  109  119 1   
   121  109  120 1   
   122  121  122 1   
   123  121  127 1   
   124  122  123 1   
   125  122  125 1   
   126  122  128 1   
   127  123  124 2   
   128  123  132 1   
   129  125  126 1   
   130  125  129 1   
   131  125  130 1   
   132  126  131 1   
   133  132  133 1   
   134  132  137 1   
   135  133  134 1   
   136  133  136 1   
   137  133  138 1   
   138  134  135 2   
   139  134  142 1   
   140  136  139 1   
   141  136  140 1   
   142  136  141 1   
   143  142  143 1   
   144  142  147 1   
   145  143  144 1   
   146  143  146 1   
   147  143  148 1   
   148  144  145 2   
   149  144  152 1   
   150  146  149 1   
   151  146  150 1   
   152  146  151 1   
   153  152  153 1   
   154  152  161 1   
   155  153  154 1   
   156  153  156 1   
   157  153  162 1   
   158  154  155 2   
   159  154  167 1   
   160  156  157 1   
   161  156  163 1   
   162  156  164 1   
   163  157  158 1   
   164  157  165 1   
   165  157  166 1   
   166  158  159 1   
   167  158  160 1   
   168  167  168 1   
   169  167  172 1   
   170  168  169 1   
   171  168  170 1   
   172  168  171 1   
   173  174  175 1   
   174  174  176 1   
   175  177  179 1   
   176  177  181 1   
   177  178  180 1   
   178  178  182 1   
   179  183  184 1   
   180  183  185 1   
   181  186  187 1   
   182  186  188 1   
@<TRIPOS>SUBSTRUCTURE
     1 MOL         1 TEMP              0 ****  ****    0 ROOT
