@<TRIPOS>MOLECULE
MOL
  189   185     1     0     0
SMALL
resp


@<TRIPOS>ATOM
      1 C1          5.5880    3.8880   -3.5560 c3        1 MOL     -0.391463
      2 C2          5.9950    2.7530   -2.6040 c         1 MOL      0.809696
      3 O1          5.1950    2.2750   -1.7930 o         1 MOL     -0.634699
      4 H1          5.9210    3.6510   -4.5660 hc        1 MOL      0.101005
      5 H2          4.5030    3.9990   -3.5480 hc        1 MOL      0.101005
      6 H3          6.0510    4.8200   -3.2310 hc        1 MOL      0.101005
      7 N1          7.1290    2.1130   -2.7710 n         1 MOL     -0.759992
      8 C3          7.6250    0.9530   -2.0570 c3        1 MOL      0.385953
      9 C4          6.5240   -0.0550   -1.7700 c         1 MOL      0.185706
     10 O2          6.0900   -0.2260   -0.6120 o         1 MOL     -0.277522
     11 C5          8.5480    1.2860   -0.8460 c3        1 MOL     -0.217029
     12 C6          8.1110    2.4130    0.0560 c         1 MOL      0.766019
     13 O3          6.9620    2.3730    0.5560 o         1 MOL     -0.735003
     14 O4          8.8610    3.3900    0.4080 o         1 MOL     -0.735003
     15 H4          7.7600    2.4160   -3.5010 hn        1 MOL      0.335559
     16 H5          8.2830    0.3810   -2.7090 h1        1 MOL      0.026759
     17 H6          9.4780    1.5870   -1.3310 hc        1 MOL      0.025794
     18 H7          8.7600    0.4070   -0.2490 hc        1 MOL      0.025794
     19 N2          6.0880   -0.7490   -2.8500 n         1 MOL     -0.528890
     20 C7          5.1530   -1.9890   -2.9090 c3        1 MOL      0.179911
     21 C8          5.6360   -3.2240   -2.0240 c         1 MOL      0.356269
     22 O5          5.5990   -4.3720   -2.4340 o         1 MOL     -0.548213
     23 C9          3.6790   -1.6300   -2.7130 c3        1 MOL      0.441422
     24 C10         2.6920   -2.8230   -2.8670 c3        1 MOL     -0.121402
     25 C11         3.1210   -0.5270   -3.5430 c3        1 MOL     -0.257261
     26 C12         2.6590   -3.6560   -4.1390 c3        1 MOL     -0.133753
     27 H8          6.2740   -0.1820   -3.6750 hn        1 MOL      0.280862
     28 H9          5.2090   -2.4260   -3.9080 h1        1 MOL     -0.013696
     29 H10         3.5860   -1.3590   -1.6570 hc        1 MOL     -0.139860
     30 H11         1.7000   -2.4570   -2.5910 hc        1 MOL      0.040997
     31 H12         3.0680   -3.5790   -2.1790 hc        1 MOL      0.040997
     32 H13         3.7200    0.3620   -3.3200 hc        1 MOL      0.025255
     33 H14         3.1910   -0.7820   -4.6020 hc        1 MOL      0.025255
     34 H15         2.1860   -0.1660   -3.1200 hc        1 MOL      0.025255
     35 H16         3.6440   -4.0650   -4.3890 hc        1 MOL      0.018373
     36 H17         1.9450   -4.4660   -4.0320 hc        1 MOL      0.018373
     37 H18         2.2840   -3.0010   -4.9240 hc        1 MOL      0.018373
     38 N3          5.9350   -2.9290   -0.7670 n         1 MOL     -0.136362
     39 C13         6.5890   -3.9710    0.1260 c3        1 MOL      0.024388
     40 C14         5.6860   -5.0790    0.7150 c         1 MOL      0.612330
     41 O6          6.2640   -6.1500    0.9010 o         1 MOL     -0.580646
     42 C15         7.5080   -3.3200    1.1280 c3        1 MOL     -0.036993
     43 C16         8.5760   -2.4160    0.6500 c         1 MOL      0.678002
     44 O7          9.0860   -1.7350    1.5460 o         1 MOL     -0.717440
     45 O8          8.9410   -2.3300   -0.5010 o         1 MOL     -0.717440
     46 H19         5.8260   -1.9710   -0.4660 hn        1 MOL      0.225647
     47 H20         7.3150   -4.5330   -0.4600 h1        1 MOL      0.051274
     48 H21         7.9200   -4.1890    1.6480 hc        1 MOL     -0.007252
     49 H22         6.9330   -2.7520    1.8680 hc        1 MOL     -0.007252
     50 N4          4.3620   -4.9640    1.1160 n         1 MOL     -0.615409
     51 C17         3.7050   -3.6760    1.4080 c3        1 MOL      0.133988
     52 C18         4.1220   -2.8120    2.6270 c         1 MOL      0.492644
     53 O9          5.0540   -3.1740    3.3150 o         1 MOL     -0.543500
     54 H23         3.9110   -5.7350    1.5840 hn        1 MOL      0.310421
     55 H24         2.6310   -3.8270    1.5050 h1        1 MOL      0.039920
     56 H25         3.8960   -3.1030    0.4960 h1        1 MOL      0.039920
     57 N5          3.3820   -1.8370    3.0730 n         1 MOL     -0.446342
     58 C19         2.0270   -1.3770    2.6570 c3        1 MOL      0.149368
     59 C20         2.0810   -0.8260    1.1760 c         1 MOL      0.095994
     60 O10         3.1940   -0.6060    0.6520 o         1 MOL     -0.479497
     61 C21         1.5930   -0.2040    3.5890 c3        1 MOL     -0.292621
     62 C22         2.5800    0.9420    3.6100 c         1 MOL      0.899750
     63 O11         3.3570    0.9220    4.6120 o         1 MOL     -0.738100
     64 O12         2.7130    1.6880    2.6050 o         1 MOL     -0.738100
     65 H26         3.7130   -1.4410    3.9350 hn        1 MOL      0.308704
     66 H27         1.3120   -2.1920    2.6690 h1        1 MOL      0.032933
     67 H28         1.4670   -0.6720    4.5700 hc        1 MOL      0.075022
     68 H29         0.6100    0.1580    3.2600 hc        1 MOL      0.075022
     69 N6          1.0410   -0.5660    0.4400 n         1 MOL     -0.211161
     70 C23        -0.3280   -0.9480    0.6950 c3        1 MOL      0.086691
     71 C24        -0.7650   -2.3190    0.2080 c         1 MOL      0.599526
     72 O13        -0.0070   -3.1080   -0.4550 o         1 MOL     -0.560315
     73 H30         1.1930   -0.1180   -0.4470 hn        1 MOL      0.283977
     74 H31        -0.9760   -0.1890    0.2660 h1        1 MOL      0.032996
     75 H32        -0.6200   -0.8990    1.7440 h1        1 MOL      0.032996
     76 N7         -2.0050   -2.7090    0.5000 n         1 MOL     -0.527824
     77 C25        -2.7160   -3.8990    0.1010 c3        1 MOL      0.103657
     78 C26        -3.6780   -3.8170   -1.0980 c         1 MOL      0.280101
     79 O14        -4.1570   -4.8530   -1.6640 o         1 MOL     -0.525294
     80 C27        -3.3780   -4.6460    1.2970 c3        1 MOL     -0.033708
     81 C28        -4.6250   -3.9060    1.9060 c3        1 MOL     -0.092446
     82 C29        -5.7970   -3.6250    0.9420 c         1 MOL      0.493665
     83 N8         -6.4910   -4.5940    0.4660 n         1 MOL     -0.721976
     84 O15        -6.0440   -2.4860    0.6400 o         1 MOL     -0.447804
     85 H33        -2.4930   -2.0230    1.0580 hn        1 MOL      0.261342
     86 H34        -2.0010   -4.6790   -0.1510 h1        1 MOL      0.119278
     87 H35        -2.6560   -4.9070    2.0780 hc        1 MOL      0.033627
     88 H36        -3.7340   -5.5910    0.8960 hc        1 MOL      0.033627
     89 H37        -4.3500   -2.9210    2.2790 hc        1 MOL      0.039483
     90 H38        -4.8880   -4.5310    2.7470 hc        1 MOL      0.039483
     91 H39        -6.2990   -5.5740    0.6480 hn        1 MOL      0.361695
     92 H40        -7.3120   -4.3180   -0.0500 hn        1 MOL      0.361695
     93 N9         -4.1240   -2.6050   -1.4970 n         1 MOL     -0.008607
     94 C30        -4.7900   -2.3580   -2.8120 c3        1 MOL     -0.158344
     95 C31        -6.1520   -1.7180   -2.8500 c         1 MOL      0.506395
     96 O16        -6.7950   -1.7640   -3.8350 o         1 MOL     -0.569833
     97 C32        -3.8090   -1.4910   -3.6490 c3        1 MOL      0.027107
     98 C33        -2.5730   -2.3070   -4.0400 c3        1 MOL     -0.127269
     99 C34        -3.4070   -0.2200   -2.8840 c3        1 MOL     -0.127269
    100 H41        -3.8800   -1.8860   -0.8290 hn        1 MOL      0.177364
    101 H42        -4.9410   -3.2740   -3.3830 h1        1 MOL      0.145083
    102 H43        -4.2880   -1.1280   -4.5570 hc        1 MOL      0.051732
    103 H44        -1.9280   -1.7980   -4.7630 hc        1 MOL      0.030676
    104 H45        -2.0000   -2.5240   -3.1410 hc        1 MOL      0.030676
    105 H46        -2.8430   -3.2800   -4.4520 hc        1 MOL      0.030676
    106 H47        -4.2800    0.1720   -2.3650 hc        1 MOL      0.030676
    107 H48        -2.6470   -0.4030   -2.1140 hc        1 MOL      0.030676
    108 H49        -3.1700    0.5630   -3.5920 hc        1 MOL      0.030676
    109 N10        -6.5940   -1.3450   -1.6860 n         1 MOL     -0.166806
    110 C35        -7.9360   -0.7130   -1.5700 c3        1 MOL     -0.069254
    111 C36        -7.8130    0.6390   -0.8950 c         1 MOL      0.529542
    112 O17        -8.8420    1.3010   -0.7460 o         1 MOL     -0.524890
    113 C37        -8.9420   -1.5890   -0.7230 c3        1 MOL     -0.386566
    114 C38        -9.0740   -3.0250   -1.2290 c         1 MOL      0.708839
    115 N11        -9.7380   -3.1310   -2.3950 n         1 MOL     -0.759549
    116 O18        -8.8690   -4.0280   -0.5800 o         1 MOL     -0.548756
    117 H50        -5.9450   -1.3250   -0.9030 hn        1 MOL      0.095198
    118 H51        -8.3750   -0.6060   -2.5630 h1        1 MOL      0.114920
    119 H52        -9.9380   -1.1380   -0.6330 hc        1 MOL      0.133448
    120 H53        -8.6520   -1.6880    0.3280 hc        1 MOL      0.133448
    121 H54        -9.8970   -2.2880   -2.9290 hn        1 MOL      0.352891
    122 H55       -10.1750   -3.9920   -2.7150 hn        1 MOL      0.352891
    123 N12        -6.6140    1.1270   -0.4880 n         1 MOL     -0.454376
    124 C39        -6.4160    2.4370    0.1780 c3        1 MOL      0.063313
    125 C40        -4.8930    2.8960    0.2440 c         1 MOL      0.460472
    126 O19        -4.0720    2.1810   -0.2850 o         1 MOL     -0.448900
    127 C41        -7.0490    2.3470    1.6550 c3        1 MOL     -0.376850
    128 C42        -6.6960    1.0860    2.3990 ca        1 MOL      0.039620
    129 C43        -5.4780    0.9450    3.0700 ca        1 MOL     -0.068988
    130 C44        -7.5920    0.0190    2.4460 ca        1 MOL     -0.068988
    131 C45        -5.2760   -0.2030    3.8440 ca        1 MOL     -0.380531
    132 C46        -7.4250   -1.1360    3.2490 ca        1 MOL     -0.380531
    133 C47        -6.2250   -1.2720    3.9600 ca        1 MOL      0.466380
    134 O20        -5.9430   -2.2810    4.8090 oh        1 MOL     -0.566832
    135 H56        -5.7910    0.5470   -0.5490 hn        1 MOL      0.339132
    136 H57        -7.0000    3.1330   -0.4230 h1        1 MOL      0.088858
    137 H58        -8.1140    2.3370    1.4220 hc        1 MOL      0.133924
    138 H59        -6.8510    3.1970    2.3110 hc        1 MOL      0.133924
    139 H60        -4.8540    1.8190    3.2170 ha        1 MOL      0.126353
    140 H61        -8.5500    0.2060    1.9660 ha        1 MOL      0.126353
    141 H62        -4.4370   -0.1900    4.5270 ha        1 MOL      0.165774
    142 H63        -8.1340   -1.9460    3.3220 ha        1 MOL      0.165774
    143 H64        -5.1080   -2.1520    5.2730 ho        1 MOL      0.407088
    144 N13        -4.6910    4.0560    0.8740 n         1 MOL     -0.613122
    145 C48        -3.4190    4.6070    1.3930 c3        1 MOL      0.250480
    146 C49        -2.3900    5.0700    0.3240 c         1 MOL      0.156385
    147 O21        -1.6990    6.0830    0.5750 o         1 MOL     -0.508231
    148 C50        -2.8350    3.7150    2.5920 c3        1 MOL     -0.117724
    149 C51        -1.5900    4.4040    3.1310 c3        1 MOL     -0.351947
    150 C52        -0.9780    3.6310    4.3550 c         1 MOL      0.736945
    151 O22        -1.7010    2.8170    4.9490 o         1 MOL     -0.719712
    152 O23         0.1790    3.9460    4.7340 o         1 MOL     -0.719712
    153 H65        -5.4510    4.5870    1.2740 hn        1 MOL      0.318819
    154 H66        -3.7080    5.5460    1.8550 h1        1 MOL      0.039386
    155 H67        -2.5140    2.7650    2.1610 hc        1 MOL      0.081796
    156 H68        -3.5730    3.5180    3.3780 hc        1 MOL      0.081796
    157 H69        -1.8810    5.4040    3.4560 hc        1 MOL      0.103933
    158 H70        -0.8920    4.4870    2.2960 hc        1 MOL      0.103933
    159 N14        -2.3500    4.4440   -0.7790 n         1 MOL      0.011563
    160 C53        -1.3520    4.6140   -1.8630 c3        1 MOL     -0.136720
    161 C54        -1.8800    5.4390   -3.0430 c         1 MOL      0.448213
    162 O24        -1.1020    5.7470   -3.9530 o         1 MOL     -0.514503
    163 C55        -0.7690    3.2120   -2.2760 c3        1 MOL     -0.111142
    164 C56         0.0530    2.4450   -1.1040 c3        1 MOL      0.370484
    165 C57         1.5250    2.9790   -0.9710 c         1 MOL      0.595527
    166 O25         1.7710    4.1560   -1.3260 o         1 MOL     -0.652855
    167 O26         2.4130    2.2880   -0.4090 o         1 MOL     -0.652855
    168 H71        -2.9720    3.6540   -0.8810 hn        1 MOL      0.150666
    169 H72        -0.4990    5.2080   -1.5050 h1        1 MOL      0.173850
    170 H73        -0.0840    3.3760   -3.1070 hc        1 MOL      0.006863
    171 H74        -1.6030    2.5700   -2.5640 hc        1 MOL      0.006863
    172 H75         0.0320    1.3580   -1.1520 hc        1 MOL     -0.135443
    173 H76        -0.5220    2.5520   -0.1790 hc        1 MOL     -0.135443
    174 N15        -3.1830    5.7100   -3.0540 n         1 MOL     -0.206961
    175 C58        -3.8440    6.5720   -3.9980 c3        1 MOL     -0.175949
    176 H77        -3.4420    6.3920   -4.9960 h1        1 MOL      0.077315
    177 H78        -4.9140    6.3620   -3.9950 h1        1 MOL      0.077315
    178 H79        -3.6760    7.6120   -3.7210 h1        1 MOL      0.077315
    179 H80        -3.7360    5.3250   -2.3030 hn        1 MOL      0.188450
    180 Ca1         4.6020    1.6450    0.7840 Ca        1 MOL      1.690532
    181 O27         5.8800   -0.1810    2.3610 oh        1 MOL     -0.858897
    182 H81         6.7540   -0.0840    2.7480 ho        1 MOL      0.411717
    183 H82         5.5470   -1.0000    2.7300 ho        1 MOL      0.411717
    184 O28         3.7490    4.4440    0.5980 oh        1 MOL     -0.858897
    185 H83         3.0380    4.4580    1.2370 ho        1 MOL      0.411717
    186 H84         3.3240    4.2400   -0.2370 ho        1 MOL      0.411717
    187 O29         5.1500    2.7350    3.1410 oh        1 MOL     -0.858897
    188 H85         5.3050    3.4330    3.7660 ho        1 MOL      0.411717
    189 H86         4.4620    2.1980    3.5500 ho        1 MOL      0.411717
@<TRIPOS>BOND
     1    1    2 1   
     2    1    4 1   
     3    1    5 1   
     4    1    6 1   
     5    2    3 2   
     6    2    7 1   
     7    7    8 1   
     8    7   15 1   
     9    8    9 1   
    10    8   11 1   
    11    8   16 1   
    12    9   10 2   
    13    9   19 1   
    14   11   12 1   
    15   11   17 1   
    16   11   18 1   
    17   12   13 1   
    18   12   14 1   
    19   19   20 1   
    20   19   27 1   
    21   20   21 1   
    22   20   23 1   
    23   20   28 1   
    24   21   22 2   
    25   21   38 1   
    26   23   24 1   
    27   23   25 1   
    28   23   29 1   
    29   24   26 1   
    30   24   30 1   
    31   24   31 1   
    32   25   32 1   
    33   25   33 1   
    34   25   34 1   
    35   26   35 1   
    36   26   36 1   
    37   26   37 1   
    38   38   39 1   
    39   38   46 1   
    40   39   40 1   
    41   39   42 1   
    42   39   47 1   
    43   40   41 2   
    44   40   50 1   
    45   42   43 1   
    46   42   48 1   
    47   42   49 1   
    48   43   44 1   
    49   43   45 1   
    50   50   51 1   
    51   50   54 1   
    52   51   52 1   
    53   51   55 1   
    54   51   56 1   
    55   52   53 2   
    56   52   57 1   
    57   57   58 1   
    58   57   65 1   
    59   58   59 1   
    60   58   61 1   
    61   58   66 1   
    62   59   60 2   
    63   59   69 1   
    64   61   62 1   
    65   61   67 1   
    66   61   68 1   
    67   62   63 1   
    68   62   64 1   
    69   69   70 1   
    70   69   73 1   
    71   70   71 1   
    72   70   74 1   
    73   70   75 1   
    74   71   72 2   
    75   71   76 1   
    76   76   77 1   
    77   76   85 1   
    78   77   78 1   
    79   77   80 1   
    80   77   86 1   
    81   78   79 2   
    82   78   93 1   
    83   80   81 1   
    84   80   87 1   
    85   80   88 1   
    86   81   82 1   
    87   81   89 1   
    88   81   90 1   
    89   82   83 1   
    90   82   84 2   
    91   83   91 1   
    92   83   92 1   
    93   93   94 1   
    94   93  100 1   
    95   94   95 1   
    96   94   97 1   
    97   94  101 1   
    98   95   96 2   
    99   95  109 1   
   100   97   98 1   
   101   97   99 1   
   102   97  102 1   
   103   98  103 1   
   104   98  104 1   
   105   98  105 1   
   106   99  106 1   
   107   99  107 1   
   108   99  108 1   
   109  109  110 1   
   110  109  117 1   
   111  110  111 1   
   112  110  113 1   
   113  110  118 1   
   114  111  112 2   
   115  111  123 1   
   116  113  114 1   
   117  113  119 1   
   118  113  120 1   
   119  114  115 1   
   120  114  116 2   
   121  115  121 1   
   122  115  122 1   
   123  123  124 1   
   124  123  135 1   
   125  124  125 1   
   126  124  127 1   
   127  124  136 1   
   128  125  126 2   
   129  125  144 1   
   130  127  128 1   
   131  127  137 1   
   132  127  138 1   
   133  128  129 ar  
   134  128  130 ar  
   135  129  131 ar  
   136  129  139 1   
   137  130  132 ar  
   138  130  140 1   
   139  131  133 ar  
   140  131  141 1   
   141  132  133 ar  
   142  132  142 1   
   143  133  134 1   
   144  134  143 1   
   145  144  145 1   
   146  144  153 1   
   147  145  146 1   
   148  145  148 1   
   149  145  154 1   
   150  146  147 2   
   151  146  159 1   
   152  148  149 1   
   153  148  155 1   
   154  148  156 1   
   155  149  150 1   
   156  149  157 1   
   157  149  158 1   
   158  150  151 1   
   159  150  152 1   
   160  159  160 1   
   161  159  168 1   
   162  160  161 1   
   163  160  163 1   
   164  160  169 1   
   165  161  162 2   
   166  161  174 1   
   167  163  164 1   
   168  163  170 1   
   169  163  171 1   
   170  164  165 1   
   171  164  172 1   
   172  164  173 1   
   173  165  166 1   
   174  165  167 1   
   175  174  175 1   
   176  174  179 1   
   177  175  176 1   
   178  175  177 1   
   179  175  178 1   
   180  181  182 1   
   181  181  183 1   
   182  184  185 1   
   183  184  186 1   
   184  187  188 1   
   185  187  189 1   
@<TRIPOS>SUBSTRUCTURE
     1 MOL         1 TEMP              0 ****  ****    0 ROOT
