@<TRIPOS>MOLECULE
MOL
  181   177     1     0     0
SMALL
resp


@<TRIPOS>ATOM
      1 C1        -10.2750    7.3080   -0.5970 c3        1 MOL     -0.435599
      2 C2         -9.5130    6.2300   -1.3040 c         1 MOL      0.680547
      3 O1         -8.6240    6.4210   -2.1970 o         1 MOL     -0.589668
      4 H1        -11.1350    6.8720   -0.0890 hc        1 MOL      0.118072
      5 H2         -9.6280    7.7910    0.1350 hc        1 MOL      0.118072
      6 H3        -10.6190    8.0470   -1.3220 hc        1 MOL      0.118072
      7 N1         -9.6560    4.9340   -0.8990 n         1 MOL     -0.615976
      8 C3        -10.2870    4.3350    0.3050 c3        1 MOL      0.162253
      9 C4        -11.1320    3.0560   -0.0350 c         1 MOL      0.353717
     10 O2        -11.7200    2.5040    0.9460 o         1 MOL     -0.546220
     11 C5         -9.2260    4.0760    1.3130 c3        1 MOL     -0.142955
     12 C6         -8.1810    2.9730    1.0130 c         1 MOL      0.776509
     13 O3         -8.1810    2.3840   -0.0830 o         1 MOL     -0.789850
     14 O4         -7.4300    2.5530    1.9420 o         1 MOL     -0.789850
     15 H4         -9.0150    4.3280   -1.3990 hn        1 MOL      0.349603
     16 H5        -11.0130    5.0280    0.7200 h1        1 MOL      0.050200
     17 H6         -9.6240    3.8150    2.2920 hc        1 MOL      0.049604
     18 H7         -8.6750    4.9880    1.5340 hc        1 MOL      0.049604
     19 N2        -11.1820    2.6590   -1.3000 n         1 MOL     -0.234379
     20 C7        -11.9720    1.6090   -1.8140 c3        1 MOL      0.160067
     21 C8        -11.5690    0.2020   -1.4440 c         1 MOL      0.371398
     22 O5        -12.1930   -0.7200   -1.9800 o         1 MOL     -0.498031
     23 C9        -12.0410    1.8520   -3.2880 c3        1 MOL     -0.245702
     24 H8        -10.7490    3.2880   -1.9570 hn        1 MOL      0.210831
     25 H9        -12.9870    1.7980   -1.4630 h1        1 MOL      0.037890
     26 H10       -12.6830    1.0890   -3.7210 hc        1 MOL      0.076065
     27 H11       -12.4000    2.8740   -3.4020 hc        1 MOL      0.076065
     28 H12       -11.0820    1.8830   -3.8060 hc        1 MOL      0.076065
     29 N3        -10.3660   -0.0350   -0.7700 n         1 MOL     -0.317900
     30 C10        -9.7180   -1.3690   -0.6120 c3        1 MOL      0.003130
     31 C11        -8.7670   -1.4990    0.5760 c         1 MOL      0.579154
     32 O6         -8.2990   -0.5190    1.1950 o         1 MOL     -0.551663
     33 C12        -8.9380   -1.6350   -1.9740 c3        1 MOL     -0.233368
     34 C13        -7.8950   -0.6420   -2.3110 c         1 MOL      0.765359
     35 O7         -7.9950    0.0900   -3.3430 o         1 MOL     -0.688309
     36 O8         -6.9540   -0.6050   -1.5210 o         1 MOL     -0.688309
     37 H13        -9.8480    0.7500   -0.4290 hn        1 MOL      0.294138
     38 H14       -10.4710   -2.1430   -0.4770 h1        1 MOL      0.058987
     39 H15        -9.6470   -1.6590   -2.8040 hc        1 MOL      0.047448
     40 H16        -8.4050   -2.5540   -1.7470 hc        1 MOL      0.047448
     41 N4         -8.3800   -2.7750    0.8530 n         1 MOL     -0.485314
     42 C14        -7.5790   -3.0860    2.0120 c3        1 MOL     -0.229229
     43 C15        -6.0220   -2.7630    1.8940 c         1 MOL      0.867309
     44 O9         -5.6400   -2.0250    1.0040 o         1 MOL     -0.660263
     45 H17        -8.5470   -3.5100    0.1730 hn        1 MOL      0.348872
     46 H18        -7.6110   -4.1700    2.1890 h1        1 MOL      0.111403
     47 H19        -7.8800   -2.5430    2.9010 h1        1 MOL      0.111403
     48 N5         -5.2550   -3.2040    2.8860 n         1 MOL     -0.894307
     49 C16        -3.8070   -2.9240    2.9360 c3        1 MOL      0.438280
     50 C17        -2.9460   -3.7010    1.8990 c         1 MOL      0.548015
     51 O10        -3.3590   -4.7430    1.3210 o         1 MOL     -0.494227
     52 C18        -3.2770   -2.9340    4.3630 c3        1 MOL     -0.439890
     53 C19        -3.9890   -1.9710    5.3140 c         1 MOL      0.765828
     54 N6         -4.5920   -2.4910    6.3240 n         1 MOL     -0.760104
     55 O11        -4.2170   -0.8070    5.0360 o         1 MOL     -0.592712
     56 H20        -5.6820   -3.7770    3.6040 hn        1 MOL      0.375345
     57 H21        -3.6920   -1.8820    2.6110 h1        1 MOL      0.039459
     58 H22        -2.2310   -2.6250    4.3500 hc        1 MOL      0.099545
     59 H23        -3.3560   -3.9430    4.7910 hc        1 MOL      0.099545
     60 H24        -4.3870   -3.4480    6.5430 hn        1 MOL      0.366513
     61 H25        -5.0940   -1.8770    6.9520 hn        1 MOL      0.366513
     62 N7         -1.6900   -3.2330    1.7210 n         1 MOL     -0.636883
     63 C20        -0.8080   -3.8360    0.7630 c3        1 MOL      0.035045
     64 C21        -1.2060   -3.6880   -0.7140 c         1 MOL      0.621612
     65 O12        -2.1430   -2.9990   -1.0530 o         1 MOL     -0.515405
     66 H26        -1.2760   -2.4470    2.2010 hn        1 MOL      0.380233
     67 H27        -0.6580   -4.8980    0.9740 h1        1 MOL      0.101649
     68 H28         0.1980   -3.4260    0.8910 h1        1 MOL      0.101649
     69 N8         -0.4850   -4.3830   -1.6440 n         1 MOL     -0.605041
     70 C22         0.5770   -5.3640   -1.3200 c3        1 MOL      0.105634
     71 C23         1.9040   -4.6690   -0.8980 c         1 MOL      0.247505
     72 O13         2.5550   -5.1170    0.0330 o         1 MOL     -0.518541
     73 C24         0.8630   -6.2590   -2.5190 c3        1 MOL      0.722372
     74 C25         1.4910   -7.5470   -2.1460 c3        1 MOL     -0.567630
     75 O14        -0.2890   -6.6030   -3.1910 oh        1 MOL     -0.696527
     76 H29        -0.5080   -4.1010   -2.6060 hn        1 MOL      0.318935
     77 H30         0.2870   -6.0010   -0.4770 h1        1 MOL      0.058693
     78 H31         1.4130   -5.6950   -3.2720 h1        1 MOL     -0.118662
     79 H32        -0.1100   -6.5700   -4.1340 ho        1 MOL      0.393132
     80 H33         0.9050   -7.8980   -1.2970 hc        1 MOL      0.128437
     81 H34         1.3580   -8.1730   -3.0260 hc        1 MOL      0.128437
     82 H35         2.5450   -7.5090   -1.8800 hc        1 MOL      0.128437
     83 N9          2.3170   -3.5650   -1.6020 n         1 MOL     -0.298365
     84 C26         3.5800   -2.7610   -1.5200 c3        1 MOL      0.090188
     85 C27         3.4440   -1.2290   -1.3370 c         1 MOL      0.404333
     86 O15         2.5830   -0.6560   -1.9630 o         1 MOL     -0.510543
     87 C28         4.4040   -3.1160   -2.7980 c3        1 MOL      0.029586
     88 C29         4.6400   -4.6370   -2.9350 c3        1 MOL      0.100976
     89 C30         5.7710   -2.4100   -2.7910 c3        1 MOL     -0.023354
     90 C31         5.0210   -4.9650   -4.4360 c3        1 MOL     -0.207005
     91 H36         1.7030   -3.2060   -2.3060 hn        1 MOL      0.194951
     92 H37         3.9890   -3.1580   -0.5830 h1        1 MOL      0.103421
     93 H38         3.8770   -2.7250   -3.6680 hc        1 MOL      0.058526
     94 H39         3.8300   -5.3130   -2.6600 hc        1 MOL     -0.034202
     95 H40         5.4660   -4.9000   -2.2760 hc        1 MOL     -0.034202
     96 H41         6.3230   -2.7210   -3.6880 hc        1 MOL     -0.007605
     97 H42         5.7120   -1.3280   -2.8820 hc        1 MOL     -0.007605
     98 H43         6.2010   -2.6600   -1.8180 hc        1 MOL     -0.007605
     99 H44         4.4810   -4.3720   -5.1760 hc        1 MOL      0.044297
    100 H45         6.0720   -4.7710   -4.6160 hc        1 MOL      0.044297
    101 H46         4.8570   -6.0230   -4.6340 hc        1 MOL      0.044297
    102 N10         4.2260   -0.5720   -0.4450 n         1 MOL     -0.283762
    103 C32         5.2370   -1.1420    0.4990 c3        1 MOL     -0.105174
    104 C33         6.4130   -0.1570    0.6740 c         1 MOL      0.657241
    105 O16         6.2640    1.0490    0.8080 o         1 MOL     -0.479722
    106 C34         4.5920   -1.4040    1.8700 c3        1 MOL     -0.298404
    107 C35         3.6120   -0.3190    2.3770 c         1 MOL      0.706223
    108 O17         2.4370   -0.3250    1.9580 o         1 MOL     -0.714621
    109 O18         3.9850    0.4770    3.2930 o         1 MOL     -0.714621
    110 H47         4.0950    0.4260   -0.4210 hn        1 MOL      0.309778
    111 H48         5.6580   -2.0800    0.1350 h1        1 MOL      0.092289
    112 H49         5.3280   -1.7330    2.6070 hc        1 MOL      0.060008
    113 H50         4.1270   -2.3640    1.6500 hc        1 MOL      0.060008
    114 N11         7.6110   -0.7930    0.6790 n         1 MOL     -0.602044
    115 C36         8.8510   -0.1690    0.9810 c3        1 MOL      0.379542
    116 C37         9.6600    0.1680   -0.3370 c         1 MOL      0.308831
    117 O19         9.5730   -0.6630   -1.2750 o         1 MOL     -0.536994
    118 C38         9.7880   -1.0330    1.8390 c3        1 MOL     -0.371924
    119 C39        11.1080   -0.3850    2.1300 ca        1 MOL      0.304561
    120 C40        12.2730   -0.7280    1.3730 ca        1 MOL     -0.296373
    121 C41        11.2230    0.5570    3.1470 ca        1 MOL     -0.296373
    122 C42        13.4570   -0.1070    1.6500 ca        1 MOL     -0.061153
    123 C43        12.4520    1.2020    3.3970 ca        1 MOL     -0.061153
    124 C44        13.5700    0.8170    2.7150 ca        1 MOL     -0.151561
    125 H51         7.7850   -1.7420    0.3740 hn        1 MOL      0.333241
    126 H52         8.7490    0.7850    1.4990 h1        1 MOL     -0.000244
    127 H53         9.8740   -1.9900    1.3210 hc        1 MOL      0.088616
    128 H54         9.3470   -1.3290    2.7870 hc        1 MOL      0.088616
    129 H55        12.1420   -1.2940    0.4650 ha        1 MOL      0.156280
    130 H56        10.3760    0.9230    3.7000 ha        1 MOL      0.156280
    131 H57        14.3230   -0.2280    1.0110 ha        1 MOL      0.095457
    132 H58        12.6230    1.9270    4.1790 ha        1 MOL      0.095457
    133 H59        14.5170    1.3170    2.8360 ha        1 MOL      0.096361
    134 N12        10.4980    1.2380   -0.3930 n         1 MOL      0.041198
    135 C45        10.4560    2.4490    0.4740 c3        1 MOL     -0.023536
    136 C46         9.1000    3.1800    0.5510 c         1 MOL      0.424654
    137 O20         8.7150    3.5810    1.6700 o         1 MOL     -0.543670
    138 C47        11.4730    3.3600   -0.0840 c3        1 MOL      0.117439
    139 C48        12.3270    2.5840   -1.0030 c3        1 MOL      0.062797
    140 C49        11.4500    1.4500   -1.4840 c3        1 MOL     -0.292062
    141 H60        10.7020    2.1670    1.5060 h1        1 MOL      0.059193
    142 H61        11.0550    4.1670   -0.6890 hc        1 MOL     -0.015213
    143 H62        12.0350    3.8310    0.7270 hc        1 MOL     -0.015213
    144 H63        12.6840    3.2050   -1.8240 hc        1 MOL     -0.010958
    145 H64        13.2580    2.3410   -0.4850 hc        1 MOL     -0.010958
    146 H65        10.8300    1.7060   -2.3380 h1        1 MOL      0.120722
    147 H66        12.0590    0.5810   -1.7410 h1        1 MOL      0.120722
    148 N13         8.4280    3.2490   -0.5820 n         1 MOL     -0.326788
    149 C50         7.1350    3.9560   -0.6640 c3        1 MOL      0.177558
    150 C51         7.3540    5.3960   -0.3630 c         1 MOL      0.451109
    151 O21         8.0560    6.2020   -0.9900 o         1 MOL     -0.572366
    152 C52         6.5550    3.8740   -2.0570 c3        1 MOL     -0.162249
    153 C53         6.6540    2.5270   -2.6920 c3        1 MOL     -0.059090
    154 C54         5.8700    2.3130   -3.9720 c         1 MOL      0.666358
    155 O22         5.6430    3.2520   -4.7400 o         1 MOL     -0.707601
    156 O23         5.5630    1.1300   -4.3230 o         1 MOL     -0.707601
    157 H67         8.7970    2.7290   -1.3720 hn        1 MOL      0.236467
    158 H68         6.5050    3.3240   -0.0450 h1        1 MOL      0.098145
    159 H69         7.1650    4.5040   -2.7100 hc        1 MOL      0.050894
    160 H70         5.5550    4.3120   -2.0430 hc        1 MOL      0.050894
    161 H71         6.4990    1.7970   -1.8970 hc        1 MOL     -0.011173
    162 H72         7.7160    2.4290   -2.9260 hc        1 MOL     -0.011173
    163 N14         6.7660    5.9300    0.7450 n         1 MOL     -0.428328
    164 C55         6.0430    5.2590    1.8210 c3        1 MOL     -0.022175
    165 H73         5.0480    5.6950    1.9170 h1        1 MOL      0.051914
    166 H74         5.9530    4.1970    1.5930 h1        1 MOL      0.051914
    167 H75         6.5860    5.3850    2.7580 h1        1 MOL      0.051914
    168 H76         7.2020    6.8100    0.9990 hn        1 MOL      0.284539
    169 Ca1        -6.0210    0.6390    0.5530 Ca        1 MOL      1.789893
    170 O24        -5.7160    0.3060    3.2340 oh        1 MOL     -0.840476
    171 H77        -5.2070   -0.2570    3.8170 ho        1 MOL      0.414637
    172 H78        -6.3250    0.7710    3.8190 ho        1 MOL      0.414637
    173 O25        -4.7770    2.8720    1.5990 oh        1 MOL     -0.840476
    174 H79        -3.9090    3.2750    1.5760 ho        1 MOL      0.414637
    175 H80        -5.1780    3.2190    2.3970 ho        1 MOL      0.414637
    176 O26        -5.1380    1.7160   -1.8390 oh        1 MOL     -0.840476
    177 H81        -5.2400    1.6490   -2.7880 ho        1 MOL      0.414637
    178 H82        -4.4860    2.4150   -1.7160 ho        1 MOL      0.414637
    179 O27        -3.3480    0.1910    0.5310 oh        1 MOL     -0.840476
    180 H83        -2.5700    0.0740    1.0670 ho        1 MOL      0.414637
    181 H84        -3.1430   -0.2300   -0.3020 ho        1 MOL      0.414637
@<TRIPOS>BOND
     1    1    2 1   
     2    1    4 1   
     3    1    5 1   
     4    1    6 1   
     5    2    3 2   
     6    2    7 1   
     7    7    8 1   
     8    7   15 1   
     9    8    9 1   
    10    8   11 1   
    11    8   16 1   
    12    9   10 2   
    13    9   19 1   
    14   11   12 1   
    15   11   17 1   
    16   11   18 1   
    17   12   13 1   
    18   12   14 1   
    19   19   20 1   
    20   19   24 1   
    21   20   21 1   
    22   20   23 1   
    23   20   25 1   
    24   21   22 2   
    25   21   29 1   
    26   23   26 1   
    27   23   27 1   
    28   23   28 1   
    29   29   30 1   
    30   29   37 1   
    31   30   31 1   
    32   30   33 1   
    33   30   38 1   
    34   31   32 2   
    35   31   41 1   
    36   33   34 1   
    37   33   39 1   
    38   33   40 1   
    39   34   35 1   
    40   34   36 1   
    41   41   42 1   
    42   41   45 1   
    43   42   43 1   
    44   42   46 1   
    45   42   47 1   
    46   43   44 2   
    47   43   48 1   
    48   48   49 1   
    49   48   56 1   
    50   49   50 1   
    51   49   52 1   
    52   49   57 1   
    53   50   51 2   
    54   50   62 1   
    55   52   53 1   
    56   52   58 1   
    57   52   59 1   
    58   53   54 1   
    59   53   55 2   
    60   54   60 1   
    61   54   61 1   
    62   62   63 1   
    63   62   66 1   
    64   63   64 1   
    65   63   67 1   
    66   63   68 1   
    67   64   65 2   
    68   64   69 1   
    69   69   70 1   
    70   69   76 1   
    71   70   71 1   
    72   70   73 1   
    73   70   77 1   
    74   71   72 2   
    75   71   83 1   
    76   73   74 1   
    77   73   75 1   
    78   73   78 1   
    79   74   80 1   
    80   74   81 1   
    81   74   82 1   
    82   75   79 1   
    83   83   84 1   
    84   83   91 1   
    85   84   85 1   
    86   84   87 1   
    87   84   92 1   
    88   85   86 2   
    89   85  102 1   
    90   87   88 1   
    91   87   89 1   
    92   87   93 1   
    93   88   90 1   
    94   88   94 1   
    95   88   95 1   
    96   89   96 1   
    97   89   97 1   
    98   89   98 1   
    99   90   99 1   
   100   90  100 1   
   101   90  101 1   
   102  102  103 1   
   103  102  110 1   
   104  103  104 1   
   105  103  106 1   
   106  103  111 1   
   107  104  105 2   
   108  104  114 1   
   109  106  107 1   
   110  106  112 1   
   111  106  113 1   
   112  107  108 1   
   113  107  109 1   
   114  114  115 1   
   115  114  125 1   
   116  115  116 1   
   117  115  118 1   
   118  115  126 1   
   119  116  117 2   
   120  116  134 1   
   121  118  119 1   
   122  118  127 1   
   123  118  128 1   
   124  119  120 ar  
   125  119  121 ar  
   126  120  122 ar  
   127  120  129 1   
   128  121  123 ar  
   129  121  130 1   
   130  122  124 ar  
   131  122  131 1   
   132  123  124 ar  
   133  123  132 1   
   134  124  133 1   
   135  134  135 1   
   136  134  140 1   
   137  135  136 1   
   138  135  138 1   
   139  135  141 1   
   140  136  137 2   
   141  136  148 1   
   142  138  139 1   
   143  138  142 1   
   144  138  143 1   
   145  139  140 1   
   146  139  144 1   
   147  139  145 1   
   148  140  146 1   
   149  140  147 1   
   150  148  149 1   
   151  148  157 1   
   152  149  150 1   
   153  149  152 1   
   154  149  158 1   
   155  150  151 2   
   156  150  163 1   
   157  152  153 1   
   158  152  159 1   
   159  152  160 1   
   160  153  154 1   
   161  153  161 1   
   162  153  162 1   
   163  154  155 1   
   164  154  156 1   
   165  163  164 1   
   166  163  168 1   
   167  164  165 1   
   168  164  166 1   
   169  164  167 1   
   170  170  171 1   
   171  170  172 1   
   172  173  174 1   
   173  173  175 1   
   174  176  177 1   
   175  176  178 1   
   176  179  180 1   
   177  179  181 1   
@<TRIPOS>SUBSTRUCTURE
     1 MOL         1 TEMP              0 ****  ****    0 ROOT
