@<TRIPOS>MOLECULE
MOL
  195   189     1     0     0
SMALL
resp


@<TRIPOS>ATOM
      1 C1         -0.2910   -4.5360    3.0460 c3        1 MOL     -0.136012
      2 C2          0.4900   -4.3230    1.8090 c         1 MOL      0.479895
      3 O1          1.3500   -3.3750    1.7510 o         1 MOL     -0.532629
      4 H1         -0.5090   -3.5730    3.5090 hc        1 MOL      0.035880
      5 H2         -1.2260   -5.0420    2.8030 hc        1 MOL      0.035880
      6 H3          0.2850   -5.1500    3.7390 hc        1 MOL      0.035880
      7 N1          0.3710   -5.1360    0.7600 n         1 MOL     -0.297841
      8 C3          1.0640   -4.9090   -0.5310 c3        1 MOL     -0.409802
      9 C4          2.5610   -4.6750   -0.4360 c         1 MOL      0.888377
     10 O2          3.1460   -4.0390   -1.3390 o         1 MOL     -0.494579
     11 C5          0.3200   -4.0250   -1.5540 c3        1 MOL     -0.487483
     12 C6         -1.1770   -4.1030   -1.4940 c         1 MOL      1.045151
     13 O3         -1.8040   -5.1110   -1.8210 o         1 MOL     -0.815926
     14 O4         -1.8440   -3.1100   -1.1490 o         1 MOL     -0.815926
     15 H4         -0.3450   -5.8540    0.7930 hn        1 MOL      0.232051
     16 H5          1.0430   -5.8390   -1.1060 h1        1 MOL      0.183531
     17 H6          0.6280   -4.3080   -2.5600 hc        1 MOL      0.157654
     18 H7          0.6630   -3.0130   -1.3690 hc        1 MOL      0.157654
     19 N2          3.2440   -5.2450    0.5900 n         1 MOL     -0.605975
     20 C7          4.6660   -5.0690    0.7830 c3        1 MOL     -0.109694
     21 C8          5.4530   -5.7830   -0.3120 c         1 MOL      0.400176
     22 O5          5.0150   -6.8170   -0.8530 o         1 MOL     -0.566471
     23 C9          5.0820   -5.5780    2.2330 c3        1 MOL      0.107995
     24 C10         4.9310   -7.1100    2.3970 c3        1 MOL      0.184752
     25 C11         4.2210   -4.8720    3.2390 c3        1 MOL     -0.272388
     26 C12         5.4020   -7.6970    3.7480 c3        1 MOL     -0.404135
     27 H8          2.7750   -5.8590    1.2420 hn        1 MOL      0.293147
     28 H9          4.8040   -3.9920    0.7730 h1        1 MOL      0.169245
     29 H10         6.1050   -5.3110    2.5270 hc        1 MOL      0.060734
     30 H11         5.3920   -7.6020    1.5360 hc        1 MOL     -0.011819
     31 H12         3.8780   -7.3730    2.2820 hc        1 MOL     -0.011819
     32 H13         4.6950   -5.1050    4.1960 hc        1 MOL      0.076138
     33 H14         4.2150   -3.8000    3.0520 hc        1 MOL      0.076138
     34 H15         3.2080   -5.2520    3.3420 hc        1 MOL      0.076138
     35 H16         4.7400   -7.2810    4.5010 hc        1 MOL      0.085476
     36 H17         5.2240   -8.7740    3.7040 hc        1 MOL      0.085476
     37 H18         6.4730   -7.5190    3.7990 hc        1 MOL      0.085476
     38 N3          6.5150   -5.2940   -0.8970 n         1 MOL     -0.313530
     39 C13         7.1010   -3.9620   -0.7220 c3        1 MOL     -0.170724
     40 C14         6.7660   -3.2010   -1.9980 c         1 MOL      0.691394
     41 O6          6.5620   -3.7570   -3.0950 o         1 MOL     -0.579694
     42 C15         8.5910   -4.0250   -0.3420 c3        1 MOL     -0.171222
     43 C16         9.1680   -2.6420   -0.2830 c         1 MOL      0.727464
     44 O7         10.4210   -2.6130   -0.5180 o         1 MOL     -0.717920
     45 O8          8.5180   -1.6670    0.1680 o         1 MOL     -0.717920
     46 H19         6.9990   -5.7400   -1.6610 hn        1 MOL      0.296194
     47 H20         6.6800   -3.4650    0.1560 h1        1 MOL      0.074190
     48 H21         9.2520   -4.5750   -1.0280 hc        1 MOL      0.031296
     49 H22         8.6990   -4.5190    0.6260 hc        1 MOL      0.031296
     50 N4          6.4940   -1.9050   -1.8290 n         1 MOL     -0.524855
     51 C17         6.0240   -1.1060   -2.9740 c3        1 MOL      0.097218
     52 C18         6.4020    0.3620   -2.9420 c         1 MOL      0.531615
     53 O9          7.5630    0.7530   -2.8610 o         1 MOL     -0.565195
     54 H23         6.7440   -1.5220   -0.9310 hn        1 MOL      0.292801
     55 H24         4.9340   -1.1550   -2.9750 h1        1 MOL      0.041726
     56 H25         6.2990   -1.4810   -3.9550 h1        1 MOL      0.041726
     57 N5          5.4310    1.2170   -3.0430 n         1 MOL     -0.477781
     58 C19         5.6430    2.6990   -2.9960 c3        1 MOL      0.166648
     59 C20         6.2740    3.2330   -1.7350 c         1 MOL      0.414595
     60 O10         6.8430    4.3160   -1.8130 o         1 MOL     -0.561386
     61 C21         4.2840    3.2870   -3.3590 c3        1 MOL     -0.375388
     62 C22         3.1890    2.7810   -2.4380 c         1 MOL      0.817287
     63 O11         2.9770    3.1870   -1.3210 o         1 MOL     -0.730158
     64 O12         2.5540    1.7580   -2.7770 o         1 MOL     -0.730158
     65 H26         4.5010    0.8300   -2.9880 hn        1 MOL      0.235448
     66 H27         6.3200    3.0610   -3.7710 h1        1 MOL      0.062213
     67 H28         4.0200    2.9780   -4.3790 hc        1 MOL      0.079297
     68 H29         4.2850    4.3670   -3.2150 hc        1 MOL      0.079297
     69 N6          6.1600    2.5820   -0.6090 n         1 MOL     -0.087287
     70 C23         6.5160    3.0630    0.6340 c3        1 MOL     -0.417385
     71 C24         5.6200    4.2290    1.1540 c         1 MOL      0.563711
     72 O13         5.9940    4.8150    2.1680 o         1 MOL     -0.599311
     73 H30         5.5470    1.7820   -0.6510 hn        1 MOL      0.253091
     74 H31         7.5380    3.4130    0.5580 h1        1 MOL      0.172448
     75 H32         6.5360    2.2700    1.3860 h1        1 MOL      0.172448
     76 N7          4.5020    4.5350    0.5160 n         1 MOL     -0.250351
     77 C25         3.4860    5.5490    1.0220 c3        1 MOL     -0.011387
     78 C26         2.9220    5.2890    2.4430 c         1 MOL      0.390984
     79 O14         2.5110    6.2690    3.0570 o         1 MOL     -0.516060
     80 C27         3.9370    6.9610    0.6090 c3        1 MOL     -0.063193
     81 C28         3.9890    7.1920   -0.9120 c3        1 MOL      0.010923
     82 C29         4.0970    8.5840   -1.3500 c         1 MOL      0.544014
     83 N8          4.9620    8.9050   -2.2880 n         1 MOL     -0.737256
     84 O15         3.3860    9.4800   -0.8360 o         1 MOL     -0.572596
     85 H33         4.2600    4.0220   -0.3250 hn        1 MOL      0.156880
     86 H34         2.5500    5.3610    0.5000 h1        1 MOL      0.114489
     87 H35         4.8250    7.3950    1.0710 hc        1 MOL      0.048138
     88 H36         3.1150    7.6310    0.8260 hc        1 MOL      0.048138
     89 H37         3.1810    6.7190   -1.4650 hc        1 MOL      0.023313
     90 H38         4.8880    6.6820   -1.2270 hc        1 MOL      0.023313
     91 H39         5.5530    8.1940   -2.7140 hn        1 MOL      0.343497
     92 H40         4.9360    9.8710   -2.5720 hn        1 MOL      0.343497
     93 N9          2.9560    4.0520    2.9260 n         1 MOL     -0.053838
     94 C30         2.2830    3.6620    4.2040 c3        1 MOL     -0.241953
     95 C31         1.0180    2.8610    4.0760 c         1 MOL      0.617486
     96 O16         0.3620    2.5480    5.0450 o         1 MOL     -0.589603
     97 C32         3.1660    2.8910    5.2060 c3        1 MOL      0.328181
     98 C33         3.5750    1.5270    4.5950 c3        1 MOL     -0.264030
     99 C34         4.3610    3.6720    5.7630 c3        1 MOL     -0.264030
    100 H41         3.4320    3.3170    2.4400 hn        1 MOL      0.176207
    101 H42         1.8330    4.5490    4.6520 h1        1 MOL      0.095916
    102 H43         2.6230    2.7020    6.1240 hc        1 MOL     -0.020532
    103 H44         4.1320    1.6960    3.6720 hc        1 MOL      0.052936
    104 H45         4.2400    1.0760    5.3370 hc        1 MOL      0.052936
    105 H46         2.7020    0.8840    4.4690 hc        1 MOL      0.052936
    106 H47         5.0900    3.8470    4.9650 hc        1 MOL      0.052936
    107 H48         4.0260    4.6680    6.0790 hc        1 MOL      0.052936
    108 H49         4.8210    3.2360    6.6440 hc        1 MOL      0.052936
    109 N10         0.7910    2.3920    2.8820 n         1 MOL     -0.488973
    110 C35        -0.2840    1.4470    2.4580 c3        1 MOL      0.455703
    111 C36        -1.0830    2.0830    1.3050 c         1 MOL      0.334963
    112 O17        -0.5840    3.0340    0.7160 o         1 MOL     -0.448221
    113 C37         0.2260    0.0200    2.2750 c3        1 MOL     -0.140994
    114 C38        -0.8680   -0.9350    1.6940 c         1 MOL      0.443814
    115 N11        -0.8030   -1.1690    0.4520 n         1 MOL     -0.395301
    116 O18        -1.7800   -1.4220    2.3730 o         1 MOL     -0.607637
    117 H50         1.2620    2.8530    2.1180 hn        1 MOL      0.193624
    118 H51        -0.9250    1.3650    3.3400 h1        1 MOL     -0.036407
    119 H52         0.5950   -0.3910    3.2200 hc        1 MOL      0.069993
    120 H53         1.1010    0.0690    1.6160 hc        1 MOL      0.069993
    121 H54        -0.3320   -0.6050   -0.2450 hn        1 MOL      0.295295
    122 H55        -1.1890   -2.0520    0.1690 hn        1 MOL      0.295295
    123 N12        -2.2630    1.5300    0.9420 n         1 MOL     -0.474471
    124 C39        -3.0940    2.0510   -0.1940 c3        1 MOL      0.116250
    125 C40        -4.5220    1.5320   -0.0500 c         1 MOL      0.506556
    126 O19        -4.8750    0.3390    0.1690 o         1 MOL     -0.516081
    127 C41        -2.5780    1.5550   -1.5450 c3        1 MOL     -0.949674
    128 C42        -2.9040    2.4730   -2.7060 ca        1 MOL      0.421298
    129 C43        -4.0990    2.1220   -3.3990 ca        1 MOL     -0.249065
    130 C44        -2.0350    3.4800   -3.1140 ca        1 MOL     -0.249065
    131 C45        -4.4870    2.9700   -4.4730 ca        1 MOL     -0.274575
    132 C46        -2.3740    4.2700   -4.2560 ca        1 MOL     -0.274575
    133 C47        -3.6400    3.9770   -4.8820 ca        1 MOL      0.320564
    134 O20        -4.0430    4.7570   -5.9370 oh        1 MOL     -0.499841
    135 H56        -2.5630    0.7570    1.5270 hn        1 MOL      0.299683
    136 H57        -3.0780    3.1390   -0.1510 h1        1 MOL      0.159580
    137 H58        -2.8120    0.5030   -1.7270 hc        1 MOL      0.310989
    138 H59        -1.4940    1.5720   -1.4240 hc        1 MOL      0.310989
    139 H60        -4.7750    1.4090   -2.9560 ha        1 MOL      0.199898
    140 H61        -1.0700    3.6530   -2.6610 ha        1 MOL      0.199898
    141 H62        -5.5310    3.0500   -4.7780 ha        1 MOL      0.167158
    142 H63        -1.7350    4.9990   -4.7250 ha        1 MOL      0.167158
    143 H64        -4.9970    4.6980   -6.0170 ho        1 MOL      0.336392
    144 N13        -5.4500    2.4940   -0.0530 n         1 MOL     -0.539726
    145 C48        -6.8850    2.2170    0.2040 c3        1 MOL      0.152373
    146 C49        -7.7870    1.9490   -1.0400 c         1 MOL      0.530021
    147 O21        -8.0360    2.8100   -1.8620 o         1 MOL     -0.558586
    148 C50        -7.3880    3.3210    1.0670 c3        1 MOL      0.109927
    149 C51        -8.8620    3.2070    1.5940 c3        1 MOL     -0.380631
    150 C52        -9.3290    4.3460    2.4620 c         1 MOL      0.756251
    151 O22        -8.9800    4.2100    3.6570 o         1 MOL     -0.734691
    152 O23        -9.9770    5.3560    2.0380 o         1 MOL     -0.734691
    153 H65        -5.1230    3.4290   -0.2620 hn        1 MOL      0.285457
    154 H66        -7.0300    1.4180    0.9260 h1        1 MOL      0.045509
    155 H67        -7.2460    4.3040    0.6340 hc        1 MOL      0.011766
    156 H68        -6.7700    3.4680    1.9480 hc        1 MOL      0.011766
    157 H69        -8.8600    2.2850    2.1750 hc        1 MOL      0.081659
    158 H70        -9.5810    2.9960    0.8050 hc        1 MOL      0.081659
    159 N14        -8.3490    0.7380   -1.2670 n         1 MOL     -0.531354
    160 C53        -8.1880   -0.4660   -0.5130 c3        1 MOL      0.155048
    161 C54        -8.7070   -0.4880    0.9080 c         1 MOL      0.443598
    162 O24        -9.8330    0.0040    1.1830 o         1 MOL     -0.526965
    163 C55        -8.7520   -1.7420   -1.2730 c3        1 MOL     -0.065394
    164 C56        -8.4420   -3.2030   -0.7270 c3        1 MOL     -0.117331
    165 C57        -6.9390   -3.5250   -0.7730 c         1 MOL      0.749581
    166 O25        -6.4760   -4.1330   -1.7520 o         1 MOL     -0.739273
    167 O26        -6.1480   -3.0680    0.0230 o         1 MOL     -0.739273
    168 H71        -8.8870    0.5940   -2.1070 hn        1 MOL      0.300488
    169 H72        -7.0970   -0.5510   -0.5120 h1        1 MOL      0.054197
    170 H73        -8.3750   -1.6930   -2.3020 hc        1 MOL      0.032214
    171 H74        -9.8200   -1.5260   -1.3040 hc        1 MOL      0.032214
    172 H75        -8.9750   -4.0060   -1.2470 hc        1 MOL      0.003630
    173 H76        -8.8380   -3.3300    0.2850 hc        1 MOL      0.003630
    174 N15        -7.8530   -0.9530    1.8510 n         1 MOL     -0.215102
    175 C58        -8.0800   -1.1470    3.3000 c3        1 MOL     -0.187808
    176 H77        -8.1380   -0.1750    3.7910 h1        1 MOL      0.090227
    177 H78        -9.0150   -1.6870    3.4530 h1        1 MOL      0.090227
    178 H79        -7.2550   -1.7190    3.7240 h1        1 MOL      0.090227
    179 H80        -6.9770   -1.3400    1.5120 hn        1 MOL      0.180352
    180 Ca1        -4.1570   -4.6880   -0.8590 Ca        1 MOL      1.688053
    181 O27        -4.8750   -6.9100   -2.1520 oh        1 MOL     -0.844072
    182 H81        -5.1550   -7.8210   -2.0990 ho        1 MOL      0.412930
    183 H82        -4.8460   -6.7270   -3.0950 ho        1 MOL      0.412930
    184 O28        -3.4920   -3.0900    1.4090 oh        1 MOL     -0.844072
    185 H83        -4.2460   -3.1070    2.0000 ho        1 MOL      0.412930
    186 H84        -2.8640   -2.5020    1.8260 ho        1 MOL      0.412930
    187 O29        -4.2740   -1.8160   -1.3810 oh        1 MOL     -0.844072
    188 H85        -4.9280   -1.9260   -0.6880 ho        1 MOL      0.412930
    189 H86        -3.7480   -1.0710   -1.1040 ho        1 MOL      0.412930
    190 O30        -5.8980   -6.1000    0.5190 oh        1 MOL     -0.844072
    191 H87        -6.2480   -6.0670    1.4060 ho        1 MOL      0.412930
    192 H88        -5.9560   -7.0240    0.2740 ho        1 MOL      0.412930
    193 O31        -4.1080   -3.9750   -3.3880 oh        1 MOL     -0.844072
    194 H89        -4.2460   -3.1030   -3.7550 ho        1 MOL      0.412930
    195 H90        -4.2550   -4.5650   -4.1250 ho        1 MOL      0.412930
@<TRIPOS>BOND
     1    1    2 1   
     2    1    4 1   
     3    1    5 1   
     4    1    6 1   
     5    2    3 2   
     6    2    7 1   
     7    7    8 1   
     8    7   15 1   
     9    8    9 1   
    10    8   11 1   
    11    8   16 1   
    12    9   10 2   
    13    9   19 1   
    14   11   12 1   
    15   11   17 1   
    16   11   18 1   
    17   12   13 1   
    18   12   14 1   
    19   19   20 1   
    20   19   27 1   
    21   20   21 1   
    22   20   23 1   
    23   20   28 1   
    24   21   22 2   
    25   21   38 1   
    26   23   24 1   
    27   23   25 1   
    28   23   29 1   
    29   24   26 1   
    30   24   30 1   
    31   24   31 1   
    32   25   32 1   
    33   25   33 1   
    34   25   34 1   
    35   26   35 1   
    36   26   36 1   
    37   26   37 1   
    38   38   39 1   
    39   38   46 1   
    40   39   40 1   
    41   39   42 1   
    42   39   47 1   
    43   40   41 2   
    44   40   50 1   
    45   42   43 1   
    46   42   48 1   
    47   42   49 1   
    48   43   44 1   
    49   43   45 1   
    50   50   51 1   
    51   50   54 1   
    52   51   52 1   
    53   51   55 1   
    54   51   56 1   
    55   52   53 2   
    56   52   57 1   
    57   57   58 1   
    58   57   65 1   
    59   58   59 1   
    60   58   61 1   
    61   58   66 1   
    62   59   60 2   
    63   59   69 1   
    64   61   62 1   
    65   61   67 1   
    66   61   68 1   
    67   62   63 1   
    68   62   64 1   
    69   69   70 1   
    70   69   73 1   
    71   70   71 1   
    72   70   74 1   
    73   70   75 1   
    74   71   72 2   
    75   71   76 1   
    76   76   77 1   
    77   76   85 1   
    78   77   78 1   
    79   77   80 1   
    80   77   86 1   
    81   78   79 2   
    82   78   93 1   
    83   80   81 1   
    84   80   87 1   
    85   80   88 1   
    86   81   82 1   
    87   81   89 1   
    88   81   90 1   
    89   82   83 1   
    90   82   84 2   
    91   83   91 1   
    92   83   92 1   
    93   93   94 1   
    94   93  100 1   
    95   94   95 1   
    96   94   97 1   
    97   94  101 1   
    98   95   96 2   
    99   95  109 1   
   100   97   98 1   
   101   97   99 1   
   102   97  102 1   
   103   98  103 1   
   104   98  104 1   
   105   98  105 1   
   106   99  106 1   
   107   99  107 1   
   108   99  108 1   
   109  109  110 1   
   110  109  117 1   
   111  110  111 1   
   112  110  113 1   
   113  110  118 1   
   114  111  112 2   
   115  111  123 1   
   116  113  114 1   
   117  113  119 1   
   118  113  120 1   
   119  114  115 1   
   120  114  116 2   
   121  115  121 1   
   122  115  122 1   
   123  123  124 1   
   124  123  135 1   
   125  124  125 1   
   126  124  127 1   
   127  124  136 1   
   128  125  126 2   
   129  125  144 1   
   130  127  128 1   
   131  127  137 1   
   132  127  138 1   
   133  128  129 ar  
   134  128  130 ar  
   135  129  131 ar  
   136  129  139 1   
   137  130  132 ar  
   138  130  140 1   
   139  131  133 ar  
   140  131  141 1   
   141  132  133 ar  
   142  132  142 1   
   143  133  134 1   
   144  134  143 1   
   145  144  145 1   
   146  144  153 1   
   147  145  146 1   
   148  145  148 1   
   149  145  154 1   
   150  146  147 2   
   151  146  159 1   
   152  148  149 1   
   153  148  155 1   
   154  148  156 1   
   155  149  150 1   
   156  149  157 1   
   157  149  158 1   
   158  150  151 1   
   159  150  152 1   
   160  159  160 1   
   161  159  168 1   
   162  160  161 1   
   163  160  163 1   
   164  160  169 1   
   165  161  162 2   
   166  161  174 1   
   167  163  164 1   
   168  163  170 1   
   169  163  171 1   
   170  164  165 1   
   171  164  172 1   
   172  164  173 1   
   173  165  166 1   
   174  165  167 1   
   175  174  175 1   
   176  174  179 1   
   177  175  176 1   
   178  175  177 1   
   179  175  178 1   
   180  181  182 1   
   181  181  183 1   
   182  184  185 1   
   183  184  186 1   
   184  187  188 1   
   185  187  189 1   
   186  190  191 1   
   187  190  192 1   
   188  193  194 1   
   189  193  195 1   
@<TRIPOS>SUBSTRUCTURE
     1 MOL         1 TEMP              0 ****  ****    0 ROOT
