@<TRIPOS>MOLECULE
MOL
  189   185     1     0     0
SMALL
resp


@<TRIPOS>ATOM
      1 C1         -4.0790    2.7640    3.9240 c3        1 MOL     -0.474150
      2 C2         -5.0000    2.4220    2.7110 c         1 MOL      0.755534
      3 O1         -4.5630    2.2810    1.5590 o         1 MOL     -0.554041
      4 H1         -4.3310    2.1170    4.7640 hc        1 MOL      0.118631
      5 H2         -3.0380    2.6090    3.6450 hc        1 MOL      0.118631
      6 H3         -4.2270    3.8050    4.2120 hc        1 MOL      0.118631
      7 N1         -6.3050    2.1760    2.9430 n         1 MOL     -0.612134
      8 C3         -7.1470    1.4760    2.0130 c3        1 MOL      0.251257
      9 C4         -6.5180    0.1520    1.4400 c         1 MOL      0.335435
     10 O2         -6.5100   -0.0280    0.2310 o         1 MOL     -0.520384
     11 C5         -7.8220    2.3580    0.9590 c3        1 MOL     -0.094334
     12 C6         -7.1570    3.5570    0.2450 c         1 MOL      0.686076
     13 O3         -6.2500    3.3920   -0.5970 o         1 MOL     -0.738360
     14 O4         -7.5710    4.6860    0.7000 o         1 MOL     -0.738360
     15 H4         -6.6580    2.4100    3.8600 hn        1 MOL      0.292811
     16 H5         -7.9940    1.0480    2.5530 h1        1 MOL      0.026049
     17 H6         -8.7280    2.7770    1.3940 hc        1 MOL      0.018925
     18 H7         -8.2410    1.7590    0.1540 hc        1 MOL      0.018925
     19 N2         -5.8640   -0.5900    2.3320 n         1 MOL     -0.379342
     20 C7         -5.1440   -1.9560    2.3280 c3        1 MOL      0.084746
     21 C8         -5.8110   -3.1000    1.5740 c         1 MOL      0.262041
     22 O5         -6.0460   -4.2080    2.1020 o         1 MOL     -0.528350
     23 C9         -3.6430   -1.8620    1.8810 c3        1 MOL      0.061674
     24 C10        -2.9350   -3.1670    1.8530 c3        1 MOL      0.071630
     25 C11        -2.8890   -0.8280    2.8130 c3        1 MOL     -0.281372
     26 C12        -2.8690   -3.8250    3.2040 c3        1 MOL     -0.178357
     27 H8         -6.0010   -0.1730    3.2320 hn        1 MOL      0.210874
     28 H9         -5.1770   -2.2590    3.3690 h1        1 MOL      0.063489
     29 H10        -3.5750   -1.5190    0.8510 hc        1 MOL      0.056303
     30 H11        -1.8960   -3.0410    1.5410 hc        1 MOL      0.000893
     31 H12        -3.3310   -3.8580    1.1040 hc        1 MOL      0.000893
     32 H13        -3.1270   -0.9640    3.8690 hc        1 MOL      0.059914
     33 H14        -1.8110   -0.7730    2.7120 hc        1 MOL      0.059914
     34 H15        -3.2350    0.1470    2.4560 hc        1 MOL      0.059914
     35 H16        -3.8270   -4.1520    3.6210 hc        1 MOL      0.024793
     36 H17        -2.1430   -4.6320    3.1450 hc        1 MOL      0.024793
     37 H18        -2.4240   -3.0810    3.8660 hc        1 MOL      0.024793
     38 N3         -6.2220   -2.8440    0.3380 n         1 MOL     -0.031283
     39 C13        -6.9980   -3.7160   -0.5120 c3        1 MOL     -0.002401
     40 C14        -6.1440   -4.7820   -1.2560 c         1 MOL      0.519977
     41 O6         -6.6260   -5.9150   -1.5850 o         1 MOL     -0.603751
     42 C15        -8.1800   -3.0700   -1.2720 c3        1 MOL     -0.175821
     43 C16        -9.1260   -2.2790   -0.3510 c         1 MOL      0.711880
     44 O7         -9.4770   -2.8500    0.6970 o         1 MOL     -0.727230
     45 O8         -9.6840   -1.2550   -0.7530 o         1 MOL     -0.727230
     46 H19        -6.1740   -1.8600    0.0920 hn        1 MOL      0.338836
     47 H20        -7.5000   -4.2880    0.2750 h1        1 MOL      0.034701
     48 H21        -8.7750   -3.8720   -1.7160 hc        1 MOL      0.040522
     49 H22        -7.7770   -2.5850   -2.1550 hc        1 MOL      0.040522
     50 N4         -4.9340   -4.5670   -1.8110 n         1 MOL     -0.471509
     51 C17        -4.1320   -3.3120   -1.9280 c3        1 MOL      0.041257
     52 C18        -4.5810   -2.3860   -3.0560 c         1 MOL      0.570959
     53 O9         -5.7440   -2.4360   -3.3840 o         1 MOL     -0.509900
     54 H23        -4.5740   -5.3470   -2.3360 hn        1 MOL      0.272963
     55 H24        -3.1320   -3.6860   -2.1740 h1        1 MOL      0.035943
     56 H25        -4.0840   -2.8400   -0.9500 h1        1 MOL      0.035943
     57 N5         -3.7270   -1.6000   -3.6860 n         1 MOL     -0.564315
     58 C19        -2.3720   -1.2520   -3.1240 c3        1 MOL      0.175376
     59 C20        -2.4390   -0.7050   -1.6930 c         1 MOL      0.041896
     60 O10        -3.4800   -0.0760   -1.2690 o         1 MOL     -0.455519
     61 C21        -1.8640   -0.1120   -4.0240 c3        1 MOL     -0.389934
     62 C22        -2.6470    1.1760   -4.0140 c         1 MOL      0.876226
     63 O11        -2.4590    2.0900   -3.1700 o         1 MOL     -0.727712
     64 O12        -3.6260    1.2390   -4.7800 o         1 MOL     -0.727712
     65 H26        -4.1140   -1.1110   -4.4830 hn        1 MOL      0.318372
     66 H27        -1.6420   -2.0660   -3.1320 h1        1 MOL      0.056530
     67 H28        -1.8440   -0.3660   -5.0780 hc        1 MOL      0.089854
     68 H29        -0.8130    0.1240   -3.8510 hc        1 MOL      0.089854
     69 N6         -1.3870   -0.7390   -0.8820 n         1 MOL      0.097296
     70 C23        -0.0080   -1.0990   -1.1880 c3        1 MOL      0.046477
     71 C24         0.2910   -2.6280   -1.1020 c         1 MOL      0.406199
     72 O13        -0.5740   -3.4310   -0.7360 o         1 MOL     -0.494765
     73 H30        -1.5520   -0.1490   -0.0870 hn        1 MOL      0.057472
     74 H31         0.7140   -0.5280   -0.6080 h1        1 MOL      0.025876
     75 H32         0.1710   -0.7750   -2.2140 h1        1 MOL      0.025876
     76 N7          1.5690   -2.9060   -1.2560 n         1 MOL     -0.320127
     77 C25         2.1590   -4.2620   -1.1180 c3        1 MOL      0.055974
     78 C26         2.9120   -4.5360    0.2100 c         1 MOL      0.247982
     79 O14         3.0420   -5.6770    0.6270 o         1 MOL     -0.478439
     80 C27         2.9430   -4.6480   -2.4080 c3        1 MOL     -0.151183
     81 C28         4.0960   -3.6800   -2.7000 c3        1 MOL     -0.098549
     82 C29         5.1940   -3.6220   -1.6250 c         1 MOL      0.443783
     83 N8          6.0130   -4.6550   -1.5690 n         1 MOL     -0.573540
     84 O15         5.3780   -2.7380   -0.7830 o         1 MOL     -0.417002
     85 H33         2.2220   -2.1590   -1.4190 hn        1 MOL      0.203768
     86 H34         1.2420   -4.8470   -1.1180 h1        1 MOL      0.119445
     87 H35         2.2500   -4.6860   -3.2480 hc        1 MOL      0.072626
     88 H36         3.4120   -5.6290   -2.2990 hc        1 MOL      0.072626
     89 H37         3.7140   -2.6750   -2.8690 hc        1 MOL      0.057731
     90 H38         4.6120   -3.9570   -3.6260 hc        1 MOL      0.057731
     91 H39         6.0290   -5.4320   -2.2040 hn        1 MOL      0.323643
     92 H40         6.6890   -4.6400   -0.8220 hn        1 MOL      0.323643
     93 N9          3.2070   -3.4220    0.9470 n         1 MOL      0.014055
     94 C30         3.4760   -3.3760    2.4260 c3        1 MOL     -0.252026
     95 C31         4.7560   -2.6790    2.8550 c         1 MOL      0.454256
     96 O16         5.0470   -2.5690    4.0580 o         1 MOL     -0.563027
     97 C32         2.2840   -2.7430    3.1660 c3        1 MOL      0.169832
     98 C33         1.0900   -3.6410    2.9330 c3        1 MOL     -0.127196
     99 C34         1.9530   -1.3860    2.7090 c3        1 MOL     -0.127196
    100 H41         3.2370   -2.5550    0.4220 hn        1 MOL      0.259672
    101 H42         3.5160   -4.4300    2.7040 h1        1 MOL      0.133554
    102 H43         2.4430   -2.7540    4.2400 hc        1 MOL      0.016311
    103 H44         1.3490   -4.6930    2.9790 hc        1 MOL      0.030181
    104 H45         0.3130   -3.4960    3.6900 hc        1 MOL      0.030181
    105 H46         0.6600   -3.4400    1.9510 hc        1 MOL      0.030181
    106 H47         2.6800   -0.6210    3.0010 hc        1 MOL      0.030181
    107 H48         1.9130   -1.3740    1.6130 hc        1 MOL      0.030181
    108 H49         0.9960   -1.0680    3.1250 hc        1 MOL      0.030181
    109 N10         5.5280   -2.0690    1.9580 n         1 MOL     -0.093415
    110 C35         6.7470   -1.3110    2.1690 c3        1 MOL     -0.031789
    111 C36         6.6230    0.1340    1.6670 c         1 MOL      0.613081
    112 O17         7.3890    0.9090    2.1500 o         1 MOL     -0.576017
    113 C37         7.9360   -2.0100    1.3780 c3        1 MOL     -0.242806
    114 C38         8.0280   -3.4570    1.7580 c         1 MOL      0.679042
    115 N11         8.0370   -3.7800    3.0190 n         1 MOL     -0.792554
    116 O18         7.9560   -4.2750    0.8620 o         1 MOL     -0.602051
    117 H50         5.2970   -2.2560    0.9890 hn        1 MOL      0.004255
    118 H51         6.9150   -1.2680    3.2430 h1        1 MOL      0.071911
    119 H52         8.9190   -1.6670    1.6950 hc        1 MOL      0.108962
    120 H53         7.6890   -1.8840    0.3260 hc        1 MOL      0.108962
    121 H54         8.1040   -3.1160    3.7800 hn        1 MOL      0.373215
    122 H55         7.8880   -4.7490    3.2420 hn        1 MOL      0.373215
    123 N12         5.8500    0.3890    0.6440 n         1 MOL     -0.557614
    124 C39         5.9290    1.6630   -0.0500 c3        1 MOL      0.452784
    125 C40         4.6070    2.4700    0.0060 c         1 MOL      0.323002
    126 O19         3.5200    1.9060    0.1400 o         1 MOL     -0.447544
    127 C41         6.2480    1.4010   -1.5110 c3        1 MOL      0.004947
    128 C42         7.5860    0.8650   -1.8950 ca        1 MOL     -0.058563
    129 C43         7.6870   -0.5030   -2.2430 ca        1 MOL     -0.097768
    130 C44         8.7260    1.7200   -2.0380 ca        1 MOL     -0.097768
    131 C45         8.9340   -1.1240   -2.4180 ca        1 MOL     -0.284027
    132 C46        10.0300    1.0740   -2.1980 ca        1 MOL     -0.284027
    133 C47        10.0780   -0.2880   -2.4140 ca        1 MOL      0.356977
    134 O20        11.2610   -0.9070   -2.8180 oh        1 MOL     -0.522217
    135 H56         5.3660   -0.3940    0.2160 hn        1 MOL      0.180715
    136 H57         6.7550    2.2310    0.3960 h1        1 MOL     -0.037652
    137 H58         6.1680    2.3910   -1.9760 hc        1 MOL      0.031886
    138 H59         5.4600    0.8070   -1.9680 hc        1 MOL      0.031886
    139 H60         6.7340   -1.0090   -2.2000 ha        1 MOL      0.114624
    140 H61         8.6080    2.7770   -1.8660 ha        1 MOL      0.114624
    141 H62         8.9930   -2.1810   -2.6280 ha        1 MOL      0.143658
    142 H63        10.8610    1.7520   -2.1070 ha        1 MOL      0.143658
    143 H64        11.7610   -0.2840   -3.3510 ho        1 MOL      0.356802
    144 N13         4.6930    3.7860   -0.1550 n         1 MOL     -0.469786
    145 C48         3.6470    4.8040   -0.1910 c3        1 MOL      0.211424
    146 C49         2.5530    4.8180    0.8860 c         1 MOL      0.215010
    147 O21         1.9700    5.8960    1.0360 o         1 MOL     -0.493977
    148 C50         2.9880    4.8300   -1.5860 c3        1 MOL     -0.056945
    149 C51         3.8890    5.3610   -2.7020 c3        1 MOL     -0.156834
    150 C52         3.0250    5.5490   -3.9460 c         1 MOL      0.614148
    151 O22         3.2120    4.6170   -4.8520 o         1 MOL     -0.703080
    152 O23         2.2660    6.5850   -4.0630 o         1 MOL     -0.703080
    153 H65         5.6170    4.1920   -0.2160 hn        1 MOL      0.268101
    154 H66         4.1610    5.7380    0.0110 h1        1 MOL      0.039022
    155 H67         2.1400    5.5140   -1.5520 hc        1 MOL      0.100286
    156 H68         2.6850    3.8030   -1.7720 hc        1 MOL      0.100286
    157 H69         4.7080    4.6790   -2.9040 hc        1 MOL     -0.008429
    158 H70         4.2270    6.3610   -2.4030 hc        1 MOL     -0.008429
    159 N14         2.2240    3.7370    1.6000 n         1 MOL     -0.195904
    160 C53         1.0320    3.6940    2.4290 c3        1 MOL     -0.121173
    161 C54         1.1800    4.4190    3.7650 c         1 MOL      0.459999
    162 O24         0.1950    4.6730    4.4260 o         1 MOL     -0.535479
    163 C55         0.6200    2.2370    2.6270 c3        1 MOL     -0.144160
    164 C56         0.3070    1.5600    1.2260 c3        1 MOL      0.330598
    165 C57        -0.8360    2.2400    0.4290 c         1 MOL      0.442802
    166 O25        -1.9620    1.6950    0.3190 o         1 MOL     -0.585525
    167 O26        -0.6370    3.2700   -0.2760 o         1 MOL     -0.585525
    168 H71         2.6560    2.8440    1.4180 hn        1 MOL      0.203929
    169 H72         0.2050    4.1840    1.9190 h1        1 MOL      0.177915
    170 H73        -0.3100    2.2080    3.1960 hc        1 MOL      0.034976
    171 H74         1.3840    1.6950    3.1890 hc        1 MOL      0.034976
    172 H75         0.1860    0.4790    1.2510 hc        1 MOL     -0.120077
    173 H76         1.1520    1.6760    0.5460 hc        1 MOL     -0.120077
    174 N15         2.4100    4.8060    4.0730 n         1 MOL     -0.133901
    175 C58         2.7390    5.4490    5.3580 c3        1 MOL     -0.313583
    176 H77         2.4570    4.7870    6.1780 h1        1 MOL      0.112121
    177 H78         3.8100    5.6470    5.4040 h1        1 MOL      0.112121
    178 H79         2.1910    6.3870    5.4460 h1        1 MOL      0.112121
    179 H80         3.1040    4.3960    3.4630 hn        1 MOL      0.180905
    180 Ca1        -3.9460    2.5310   -1.0950 Ca        1 MOL      1.822946
    181 O27        -4.0440    4.7990   -2.8020 oh        1 MOL     -0.900417
    182 H81        -4.6310    5.5260   -2.5820 ho        1 MOL      0.428598
    183 H82        -3.6620    5.0450   -3.6360 ho        1 MOL      0.428598
    184 O28        -3.5000    4.7730    0.2910 oh        1 MOL     -0.900417
    185 H83        -2.7660    5.3670    0.0880 ho        1 MOL      0.428598
    186 H84        -3.9230    5.1790    1.0370 ho        1 MOL      0.428598
    187 O29        -5.5160    1.3750   -2.9410 oh        1 MOL     -0.900417
    188 H85        -5.0740    1.1750   -3.7620 ho        1 MOL      0.428598
    189 H86        -6.4290    1.1530   -3.1060 ho        1 MOL      0.428598
@<TRIPOS>BOND
     1    1    2 1   
     2    1    4 1   
     3    1    5 1   
     4    1    6 1   
     5    2    3 2   
     6    2    7 1   
     7    7    8 1   
     8    7   15 1   
     9    8    9 1   
    10    8   11 1   
    11    8   16 1   
    12    9   10 2   
    13    9   19 1   
    14   11   12 1   
    15   11   17 1   
    16   11   18 1   
    17   12   13 1   
    18   12   14 1   
    19   19   20 1   
    20   19   27 1   
    21   20   21 1   
    22   20   23 1   
    23   20   28 1   
    24   21   22 2   
    25   21   38 1   
    26   23   24 1   
    27   23   25 1   
    28   23   29 1   
    29   24   26 1   
    30   24   30 1   
    31   24   31 1   
    32   25   32 1   
    33   25   33 1   
    34   25   34 1   
    35   26   35 1   
    36   26   36 1   
    37   26   37 1   
    38   38   39 1   
    39   38   46 1   
    40   39   40 1   
    41   39   42 1   
    42   39   47 1   
    43   40   41 2   
    44   40   50 1   
    45   42   43 1   
    46   42   48 1   
    47   42   49 1   
    48   43   44 1   
    49   43   45 1   
    50   50   51 1   
    51   50   54 1   
    52   51   52 1   
    53   51   55 1   
    54   51   56 1   
    55   52   53 2   
    56   52   57 1   
    57   57   58 1   
    58   57   65 1   
    59   58   59 1   
    60   58   61 1   
    61   58   66 1   
    62   59   60 2   
    63   59   69 1   
    64   61   62 1   
    65   61   67 1   
    66   61   68 1   
    67   62   63 1   
    68   62   64 1   
    69   69   70 1   
    70   69   73 1   
    71   70   71 1   
    72   70   74 1   
    73   70   75 1   
    74   71   72 2   
    75   71   76 1   
    76   76   77 1   
    77   76   85 1   
    78   77   78 1   
    79   77   80 1   
    80   77   86 1   
    81   78   79 2   
    82   78   93 1   
    83   80   81 1   
    84   80   87 1   
    85   80   88 1   
    86   81   82 1   
    87   81   89 1   
    88   81   90 1   
    89   82   83 1   
    90   82   84 2   
    91   83   91 1   
    92   83   92 1   
    93   93   94 1   
    94   93  100 1   
    95   94   95 1   
    96   94   97 1   
    97   94  101 1   
    98   95   96 2   
    99   95  109 1   
   100   97   98 1   
   101   97   99 1   
   102   97  102 1   
   103   98  103 1   
   104   98  104 1   
   105   98  105 1   
   106   99  106 1   
   107   99  107 1   
   108   99  108 1   
   109  109  110 1   
   110  109  117 1   
   111  110  111 1   
   112  110  113 1   
   113  110  118 1   
   114  111  112 2   
   115  111  123 1   
   116  113  114 1   
   117  113  119 1   
   118  113  120 1   
   119  114  115 1   
   120  114  116 2   
   121  115  121 1   
   122  115  122 1   
   123  123  124 1   
   124  123  135 1   
   125  124  125 1   
   126  124  127 1   
   127  124  136 1   
   128  125  126 2   
   129  125  144 1   
   130  127  128 1   
   131  127  137 1   
   132  127  138 1   
   133  128  129 ar  
   134  128  130 ar  
   135  129  131 ar  
   136  129  139 1   
   137  130  132 ar  
   138  130  140 1   
   139  131  133 ar  
   140  131  141 1   
   141  132  133 ar  
   142  132  142 1   
   143  133  134 1   
   144  134  143 1   
   145  144  145 1   
   146  144  153 1   
   147  145  146 1   
   148  145  148 1   
   149  145  154 1   
   150  146  147 2   
   151  146  159 1   
   152  148  149 1   
   153  148  155 1   
   154  148  156 1   
   155  149  150 1   
   156  149  157 1   
   157  149  158 1   
   158  150  151 1   
   159  150  152 1   
   160  159  160 1   
   161  159  168 1   
   162  160  161 1   
   163  160  163 1   
   164  160  169 1   
   165  161  162 2   
   166  161  174 1   
   167  163  164 1   
   168  163  170 1   
   169  163  171 1   
   170  164  165 1   
   171  164  172 1   
   172  164  173 1   
   173  165  166 1   
   174  165  167 1   
   175  174  175 1   
   176  174  179 1   
   177  175  176 1   
   178  175  177 1   
   179  175  178 1   
   180  181  182 1   
   181  181  183 1   
   182  184  185 1   
   183  184  186 1   
   184  187  188 1   
   185  187  189 1   
@<TRIPOS>SUBSTRUCTURE
     1 MOL         1 TEMP              0 ****  ****    0 ROOT
