@<TRIPOS>MOLECULE
MOL
  192   187     1     0     0
SMALL
resp


@<TRIPOS>ATOM
      1 C1          4.3500   -2.0720   -2.7710 c3        1 MOL     -0.320206
      2 C2          3.4630   -2.6090   -1.5610 c         1 MOL      0.607659
      3 O1          2.4900   -1.9150   -1.1920 o         1 MOL     -0.483750
      4 H1          3.8920   -2.3670   -3.7150 hc        1 MOL      0.078377
      5 H2          4.4100   -0.9850   -2.7220 hc        1 MOL      0.078377
      6 H3          5.3520   -2.4950   -2.7050 hc        1 MOL      0.078377
      7 N1          3.6160   -3.8680   -1.2330 n         1 MOL     -0.453328
      8 C3          2.7750   -4.7050   -0.3480 c3        1 MOL     -0.029035
      9 C4          1.2460   -4.7710   -0.7260 c         1 MOL      0.760096
     10 O2          0.3460   -4.8360    0.0970 o         1 MOL     -0.585947
     11 C5          3.0680   -4.3480    1.1040 c3        1 MOL     -0.299959
     12 C6          4.5760   -4.4120    1.4040 c         1 MOL      0.876123
     13 O3          4.9640   -3.9240    2.5260 o         1 MOL     -0.802270
     14 O4          5.4520   -5.0300    0.7880 o         1 MOL     -0.802270
     15 H4          4.4040   -4.3120   -1.6840 hn        1 MOL      0.259275
     16 H5          3.1510   -5.7200   -0.4480 h1        1 MOL      0.092563
     17 H6          2.6600   -5.2220    1.6210 hc        1 MOL      0.112392
     18 H7          2.5930   -3.4020    1.3490 hc        1 MOL      0.112392
     19 N2          0.9100   -4.6240   -1.9990 n         1 MOL     -0.679028
     20 C7         -0.5290   -4.4700   -2.4660 c3        1 MOL     -0.066657
     21 C8         -1.1810   -5.8500   -2.2470 c         1 MOL      0.530350
     22 O5         -0.5660   -6.8250   -2.5830 o         1 MOL     -0.588436
     23 C9         -0.6150   -3.9050   -3.8810 c3        1 MOL      0.106556
     24 C10         0.4380   -4.7410   -4.7900 c3        1 MOL      0.227920
     25 C11        -0.4440   -2.4090   -3.8180 c3        1 MOL     -0.268002
     26 C12         0.0290   -4.5770   -6.1920 c3        1 MOL     -0.171649
     27 H8          1.6890   -4.4030   -2.6010 hn        1 MOL      0.278911
     28 H9         -1.0870   -3.8050   -1.8090 h1        1 MOL      0.189757
     29 H10        -1.5800   -4.1290   -4.3130 hc        1 MOL      0.013337
     30 H11         0.3590   -5.8080   -4.5940 hc        1 MOL     -0.033256
     31 H12         1.4530   -4.3880   -4.6400 hc        1 MOL     -0.033256
     32 H13        -1.1860   -1.9640   -3.1540 hc        1 MOL      0.087916
     33 H14         0.5670   -2.2870   -3.4260 hc        1 MOL      0.087916
     34 H15        -0.4150   -2.0060   -4.8260 hc        1 MOL      0.087916
     35 H16         0.6030   -5.2560   -6.8220 hc        1 MOL      0.012521
     36 H17        -1.0450   -4.7470   -6.2840 hc        1 MOL      0.012521
     37 H18         0.1730   -3.5530   -6.5420 hc        1 MOL      0.012521
     38 N3         -2.3320   -5.9320   -1.6880 n         1 MOL     -0.343901
     39 C13        -3.0130   -4.9090   -0.8940 c3        1 MOL      0.059621
     40 C14        -3.8340   -5.5260    0.1860 c         1 MOL      0.494764
     41 O6         -4.4880   -6.4970   -0.0770 o         1 MOL     -0.500668
     42 C15        -3.7660   -4.1170   -1.9480 c3        1 MOL     -0.070168
     43 C16        -5.0500   -3.3800   -1.3840 c         1 MOL      0.637686
     44 O7         -6.1250   -3.9350   -1.5650 o         1 MOL     -0.668295
     45 O8         -4.9320   -2.3720   -0.6910 o         1 MOL     -0.668295
     46 H19        -2.7640   -6.8520   -1.7620 hn        1 MOL      0.240580
     47 H20        -2.2730   -4.3110   -0.3580 h1        1 MOL      0.025817
     48 H21        -4.1210   -4.7650   -2.7500 hc        1 MOL     -0.008957
     49 H22        -3.0780   -3.3650   -2.3360 hc        1 MOL     -0.008957
     50 N4         -3.9630   -4.8370    1.3820 n         1 MOL     -0.378845
     51 C17        -4.7940   -5.2430    2.5110 c3        1 MOL     -0.042472
     52 C18        -5.6370   -4.1700    3.1560 c         1 MOL      0.587415
     53 O9         -5.8690   -4.3470    4.3520 o         1 MOL     -0.617045
     54 H23        -3.5340   -3.9260    1.4760 hn        1 MOL      0.288852
     55 H24        -4.1370   -5.6680    3.2590 h1        1 MOL      0.048849
     56 H25        -5.5130   -5.9720    2.1630 h1        1 MOL      0.048849
     57 N5         -5.8390   -3.0670    2.4930 n         1 MOL     -0.406470
     58 C19        -6.7000   -1.9000    2.9760 c3        1 MOL      0.079734
     59 C20        -7.6570   -1.3600    1.9470 c         1 MOL      0.379675
     60 O10        -8.7340   -0.8800    2.2630 o         1 MOL     -0.568932
     61 C21        -5.7570   -0.8470    3.4660 c3        1 MOL     -0.121426
     62 C22        -4.5410   -0.5010    2.5340 c         1 MOL      0.580142
     63 O11        -3.4120   -0.9910    2.6860 o         1 MOL     -0.645910
     64 O12        -4.8580    0.0750    1.4770 o         1 MOL     -0.645910
     65 H26        -5.5240   -3.0230    1.5340 hn        1 MOL      0.321028
     66 H27        -7.3080   -2.2580    3.8020 h1        1 MOL      0.056290
     67 H28        -5.2980   -1.1580    4.4040 hc        1 MOL      0.012877
     68 H29        -6.3240    0.0710    3.6440 hc        1 MOL      0.012877
     69 N6         -7.2940   -1.3940    0.6960 n         1 MOL     -0.180119
     70 C23        -7.9350   -0.6780   -0.3900 c3        1 MOL     -0.139179
     71 C24        -8.0520    0.8520   -0.2820 c         1 MOL      0.423611
     72 O13        -8.7210    1.4770   -1.1160 o         1 MOL     -0.610360
     73 H30        -6.4070   -1.8190    0.4420 hn        1 MOL      0.140416
     74 H31        -8.8530   -1.1670   -0.7290 h1        1 MOL      0.116816
     75 H32        -7.2170   -0.8620   -1.1920 h1        1 MOL      0.116816
     76 N7         -7.2460    1.4650    0.5350 n         1 MOL     -0.018046
     77 C25        -7.0070    2.9700    0.7650 c3        1 MOL     -0.200226
     78 C26        -6.4700    3.7600   -0.4390 c         1 MOL      0.537260
     79 O14        -6.5940    4.9510   -0.5100 o         1 MOL     -0.534247
     80 C27        -8.1890    3.6960    1.3930 c3        1 MOL      0.230165
     81 C28        -8.5210    3.2760    2.8030 c3        1 MOL     -0.179976
     82 C29        -7.4590    3.7160    3.8420 c         1 MOL      0.486532
     83 N8         -7.1840    2.8350    4.7790 n         1 MOL     -0.644573
     84 O15        -6.8110    4.7900    3.7780 o         1 MOL     -0.522098
     85 H33        -6.6540    0.8260    1.0520 hn        1 MOL      0.163186
     86 H34        -6.2320    3.0220    1.5230 h1        1 MOL      0.143311
     87 H35        -9.0300    3.4220    0.7520 hc        1 MOL     -0.016603
     88 H36        -8.1100    4.7810    1.4470 hc        1 MOL     -0.016603
     89 H37        -8.7130    2.2050    2.9120 hc        1 MOL      0.027897
     90 H38        -9.4300    3.7950    3.0940 hc        1 MOL      0.027897
     91 H39        -7.7520    2.0040    4.8440 hn        1 MOL      0.320718
     92 H40        -6.6690    3.1540    5.5890 hn        1 MOL      0.320718
     93 N9         -5.8330    3.0730   -1.3960 n         1 MOL     -0.384805
     94 C30        -5.2030    3.7050   -2.6090 c3        1 MOL     -0.012453
     95 C31        -3.6370    3.4940   -2.7280 c         1 MOL      0.490982
     96 O16        -3.0780    3.9820   -3.7180 o         1 MOL     -0.576196
     97 C32        -5.9400    3.2130   -3.8480 c3        1 MOL      0.531055
     98 C33        -5.7640    1.6920   -4.1700 c3        1 MOL     -0.446008
     99 C34        -7.4870    3.5020   -3.7830 c3        1 MOL     -0.446008
    100 H41        -5.7410    2.0720   -1.2590 hn        1 MOL      0.226922
    101 H42        -5.3320    4.7780   -2.6380 h1        1 MOL      0.062735
    102 H43        -5.5360    3.8240   -4.6560 hc        1 MOL     -0.104503
    103 H44        -6.1320    1.5930   -5.1970 hc        1 MOL      0.091481
    104 H45        -4.6950    1.4910   -4.2010 hc        1 MOL      0.091481
    105 H46        -6.4340    1.0450   -3.5970 hc        1 MOL      0.091481
    106 H47        -7.8740    2.8030   -3.0350 hc        1 MOL      0.091481
    107 H48        -7.6320    4.5720   -3.6800 hc        1 MOL      0.091481
    108 H49        -7.7270    3.1350   -4.7760 hc        1 MOL      0.091481
    109 N10        -3.0020    2.7340   -1.8500 n         1 MOL     -0.414910
    110 C35        -1.6440    2.2810   -2.0090 c3        1 MOL      0.307356
    111 C36        -0.9080    2.7140   -0.6810 c         1 MOL      0.501668
    112 O17        -1.4740    3.0280    0.3760 o         1 MOL     -0.515105
    113 C37        -1.6350    0.8150   -2.4300 c3        1 MOL     -0.131447
    114 C38        -0.2340    0.2710   -2.3670 c         1 MOL      0.309130
    115 N11         0.0200   -0.4040   -1.2670 n         1 MOL     -0.560601
    116 O18         0.6460    0.5720   -3.1670 o         1 MOL     -0.530825
    117 H50        -3.4270    2.4490   -0.9750 hn        1 MOL      0.213581
    118 H51        -1.1070    2.8380   -2.7920 h1        1 MOL      0.022309
    119 H52        -2.0620    0.7090   -3.4320 hc        1 MOL      0.068499
    120 H53        -2.2860    0.1720   -1.8520 hc        1 MOL      0.068499
    121 H54        -0.8120   -0.7140   -0.7780 hn        1 MOL      0.317897
    122 H55         0.8880   -0.9150   -1.1930 hn        1 MOL      0.317897
    123 N12         0.3740    2.7140   -0.8760 n         1 MOL     -0.611638
    124 C39         1.3050    3.0320    0.1980 c3        1 MOL      0.472286
    125 C40         2.6270    3.6490   -0.3190 c         1 MOL      0.367579
    126 O19         3.0470    3.2320   -1.4520 o         1 MOL     -0.559232
    127 C41         1.5630    1.8120    1.1000 c3        1 MOL     -0.119440
    128 C42         2.1810    2.0880    2.4910 ca        1 MOL     -0.002891
    129 C43         3.5460    1.8250    2.7460 ca        1 MOL     -0.129191
    130 C44         1.3410    2.5010    3.5280 ca        1 MOL     -0.129191
    131 C45         4.0690    2.0260    4.0430 ca        1 MOL     -0.280188
    132 C46         1.8580    2.8280    4.7780 ca        1 MOL     -0.280188
    133 C47         3.2180    2.5450    5.1070 ca        1 MOL      0.339826
    134 O20         3.7100    2.7120    6.3550 oh        1 MOL     -0.500199
    135 H56         0.7910    2.3040   -1.7060 hn        1 MOL      0.335538
    136 H57         0.7970    3.7990    0.7860 h1        1 MOL     -0.033933
    137 H58         2.1740    1.0570    0.5940 hc        1 MOL      0.070871
    138 H59         0.5630    1.4430    1.2920 hc        1 MOL      0.070871
    139 H60         4.2130    1.4610    1.9780 ha        1 MOL      0.157573
    140 H61         0.3200    2.8240    3.3620 ha        1 MOL      0.157573
    141 H62         5.1000    1.7850    4.2560 ha        1 MOL      0.145495
    142 H63         1.3080    3.3000    5.5720 ha        1 MOL      0.145495
    143 H64         4.5690    2.2780    6.4720 ho        1 MOL      0.351816
    144 N13         3.3160    4.4500    0.4540 n         1 MOL     -0.516774
    145 C48         4.6460    4.9070    0.1550 c3        1 MOL      0.577819
    146 C49         5.7180    4.1710    0.9760 c         1 MOL      0.261204
    147 O21         5.7590    4.3720    2.2080 o         1 MOL     -0.549937
    148 C50         4.7310    6.4700    0.1640 c3        1 MOL     -0.118842
    149 C51         3.8260    7.1390   -0.8930 c3        1 MOL     -0.065404
    150 C52         3.8870    8.6620   -0.9180 c         1 MOL      0.680101
    151 O22         4.3580    9.3030   -1.8770 o         1 MOL     -0.696026
    152 O23         3.3190    9.2110    0.0620 o         1 MOL     -0.696026
    153 H65         3.0170    4.6830    1.3900 hn        1 MOL      0.301034
    154 H66         4.8010    4.6580   -0.8970 h1        1 MOL     -0.046332
    155 H67         5.7230    6.8740    0.0090 hc        1 MOL      0.016547
    156 H68         4.3440    6.7370    1.1540 hc        1 MOL      0.016547
    157 H69         2.8170    6.8290   -0.6460 hc        1 MOL     -0.008639
    158 H70         4.0680    6.7030   -1.8680 hc        1 MOL     -0.008639
    159 N14         6.5490    3.3020    0.3920 n         1 MOL     -0.356599
    160 C53         6.5650    2.6820   -0.9510 c3        1 MOL     -0.118193
    161 C54         7.0270    3.5570   -2.1130 c         1 MOL      0.433971
    162 O24         7.9970    4.2990   -2.0570 o         1 MOL     -0.538567
    163 C55         7.1390    1.2690   -1.0040 c3        1 MOL      0.116165
    164 C56         6.4460    0.4760    0.1120 c3        1 MOL     -0.016339
    165 C57         6.7810   -1.0150    0.1820 c         1 MOL      0.703147
    166 O25         7.9560   -1.3970    0.3060 o         1 MOL     -0.782716
    167 O26         5.9000   -1.9240    0.3270 o         1 MOL     -0.782716
    168 H71         7.2390    2.8230    0.9550 hn        1 MOL      0.289201
    169 H72         5.5030    2.5380   -1.1460 h1        1 MOL      0.102884
    170 H73         8.2150    1.2270   -0.8900 hc        1 MOL     -0.020915
    171 H74         6.9550    0.8320   -1.9840 hc        1 MOL     -0.020915
    172 H75         5.3760    0.4920   -0.1130 hc        1 MOL      0.010030
    173 H76         6.6530    0.8200    1.1290 hc        1 MOL      0.010030
    174 N15         6.2980    3.5650   -3.1990 n         1 MOL     -0.197969
    175 C58         6.5510    4.2620   -4.4500 c3        1 MOL     -0.110564
    176 H77         6.4670    3.5600   -5.2800 h1        1 MOL      0.068270
    177 H78         5.8200    5.0610   -4.5760 h1        1 MOL      0.068270
    178 H79         7.5550    4.6860   -4.4340 h1        1 MOL      0.068270
    179 H80         5.5230    2.9210   -3.1950 hn        1 MOL      0.232270
    180 Ca1         7.5080   -3.6680    1.3960 Ca        1 MOL      1.773088
    181 O27         9.7530   -3.0960    2.9310 oh        1 MOL     -0.863486
    182 H81        10.6720   -2.8460    2.9360 ho        1 MOL      0.410622
    183 H82         9.4050   -2.7550    3.7580 ho        1 MOL      0.410622
    184 O28         7.0300   -1.7240    3.3380 oh        1 MOL     -0.863486
    185 H83         6.3540   -1.9150    4.0010 ho        1 MOL      0.410622
    186 H84         7.1260   -0.7730    3.3690 ho        1 MOL      0.410622
    187 O29         9.9090   -3.7970    0.1800 oh        1 MOL     -0.863486
    188 H85        10.6750   -3.5210    0.6710 ho        1 MOL      0.410622
    189 H86        10.2530   -4.1190   -0.6500 ho        1 MOL      0.410622
    190 O30         8.2970   -6.1130    2.5080 oh        1 MOL     -0.863486
    191 H87         8.2300   -7.0550    2.6320 ho        1 MOL      0.410622
    192 H88         8.9240   -5.8250    3.1760 ho        1 MOL      0.410622
@<TRIPOS>BOND
     1    1    2 1   
     2    1    4 1   
     3    1    5 1   
     4    1    6 1   
     5    2    3 2   
     6    2    7 1   
     7    7    8 1   
     8    7   15 1   
     9    8    9 1   
    10    8   11 1   
    11    8   16 1   
    12    9   10 2   
    13    9   19 1   
    14   11   12 1   
    15   11   17 1   
    16   11   18 1   
    17   12   13 1   
    18   12   14 1   
    19   19   20 1   
    20   19   27 1   
    21   20   21 1   
    22   20   23 1   
    23   20   28 1   
    24   21   22 2   
    25   21   38 1   
    26   23   24 1   
    27   23   25 1   
    28   23   29 1   
    29   24   26 1   
    30   24   30 1   
    31   24   31 1   
    32   25   32 1   
    33   25   33 1   
    34   25   34 1   
    35   26   35 1   
    36   26   36 1   
    37   26   37 1   
    38   38   39 1   
    39   38   46 1   
    40   39   40 1   
    41   39   42 1   
    42   39   47 1   
    43   40   41 2   
    44   40   50 1   
    45   42   43 1   
    46   42   48 1   
    47   42   49 1   
    48   43   44 1   
    49   43   45 1   
    50   50   51 1   
    51   50   54 1   
    52   51   52 1   
    53   51   55 1   
    54   51   56 1   
    55   52   53 2   
    56   52   57 1   
    57   57   58 1   
    58   57   65 1   
    59   58   59 1   
    60   58   61 1   
    61   58   66 1   
    62   59   60 2   
    63   59   69 1   
    64   61   62 1   
    65   61   67 1   
    66   61   68 1   
    67   62   63 1   
    68   62   64 1   
    69   69   70 1   
    70   69   73 1   
    71   70   71 1   
    72   70   74 1   
    73   70   75 1   
    74   71   72 2   
    75   71   76 1   
    76   76   77 1   
    77   76   85 1   
    78   77   78 1   
    79   77   80 1   
    80   77   86 1   
    81   78   79 2   
    82   78   93 1   
    83   80   81 1   
    84   80   87 1   
    85   80   88 1   
    86   81   82 1   
    87   81   89 1   
    88   81   90 1   
    89   82   83 1   
    90   82   84 2   
    91   83   91 1   
    92   83   92 1   
    93   93   94 1   
    94   93  100 1   
    95   94   95 1   
    96   94   97 1   
    97   94  101 1   
    98   95   96 2   
    99   95  109 1   
   100   97   98 1   
   101   97   99 1   
   102   97  102 1   
   103   98  103 1   
   104   98  104 1   
   105   98  105 1   
   106   99  106 1   
   107   99  107 1   
   108   99  108 1   
   109  109  110 1   
   110  109  117 1   
   111  110  111 1   
   112  110  113 1   
   113  110  118 1   
   114  111  112 2   
   115  111  123 1   
   116  113  114 1   
   117  113  119 1   
   118  113  120 1   
   119  114  115 1   
   120  114  116 2   
   121  115  121 1   
   122  115  122 1   
   123  123  124 1   
   124  123  135 1   
   125  124  125 1   
   126  124  127 1   
   127  124  136 1   
   128  125  126 2   
   129  125  144 1   
   130  127  128 1   
   131  127  137 1   
   132  127  138 1   
   133  128  129 ar  
   134  128  130 ar  
   135  129  131 ar  
   136  129  139 1   
   137  130  132 ar  
   138  130  140 1   
   139  131  133 ar  
   140  131  141 1   
   141  132  133 ar  
   142  132  142 1   
   143  133  134 1   
   144  134  143 1   
   145  144  145 1   
   146  144  153 1   
   147  145  146 1   
   148  145  148 1   
   149  145  154 1   
   150  146  147 2   
   151  146  159 1   
   152  148  149 1   
   153  148  155 1   
   154  148  156 1   
   155  149  150 1   
   156  149  157 1   
   157  149  158 1   
   158  150  151 1   
   159  150  152 1   
   160  159  160 1   
   161  159  168 1   
   162  160  161 1   
   163  160  163 1   
   164  160  169 1   
   165  161  162 2   
   166  161  174 1   
   167  163  164 1   
   168  163  170 1   
   169  163  171 1   
   170  164  165 1   
   171  164  172 1   
   172  164  173 1   
   173  165  166 1   
   174  165  167 1   
   175  174  175 1   
   176  174  179 1   
   177  175  176 1   
   178  175  177 1   
   179  175  178 1   
   180  181  182 1   
   181  181  183 1   
   182  184  185 1   
   183  184  186 1   
   184  187  188 1   
   185  187  189 1   
   186  190  191 1   
   187  190  192 1   
@<TRIPOS>SUBSTRUCTURE
     1 MOL         1 TEMP              0 ****  ****    0 ROOT
