@<TRIPOS>MOLECULE
MOL
  198   191     1     0     0
SMALL
resp


@<TRIPOS>ATOM
      1 C1          5.0320    9.4580   -1.2980 c3        1 MOL     -0.366745
      2 C2          4.8500    7.9550   -1.2320 c         1 MOL      0.641315
      3 O1          3.9700    7.4640   -0.5480 o         1 MOL     -0.556601
      4 H1          4.2060    9.9460   -0.7810 hc        1 MOL      0.099647
      5 H2          5.9720    9.7320   -0.8200 hc        1 MOL      0.099647
      6 H3          5.0470    9.7770   -2.3400 hc        1 MOL      0.099647
      7 N1          5.7050    7.1780   -1.9070 n         1 MOL     -0.515016
      8 C3          5.8400    5.7380   -1.5840 c3        1 MOL      0.114303
      9 C4          6.0310    5.4310   -0.1140 c         1 MOL      0.380797
     10 O2          6.8450    6.1170    0.5080 o         1 MOL     -0.483051
     11 C5          7.1440    5.2080   -2.3090 c3        1 MOL     -0.276939
     12 C6          7.4240    3.7420   -2.0250 c         1 MOL      0.743473
     13 O3          6.4660    2.9760   -2.2370 o         1 MOL     -0.700472
     14 O4          8.5080    3.2580   -1.6100 o         1 MOL     -0.700472
     15 H4          6.2720    7.6710   -2.5720 hn        1 MOL      0.324383
     16 H5          4.9950    5.1400   -1.9260 h1        1 MOL      0.029866
     17 H6          7.9900    5.7680   -1.8990 hc        1 MOL      0.078312
     18 H7          7.2490    5.3830   -3.3730 hc        1 MOL      0.078312
     19 N2          5.3740    4.3340    0.4330 n         1 MOL     -0.167231
     20 C7          5.3030    4.0840    1.9080 c3        1 MOL      0.087875
     21 C8          6.3660    3.1080    2.4510 c         1 MOL      0.527294
     22 O5          6.7920    3.5160    3.5310 o         1 MOL     -0.593905
     23 C9          3.8620    3.9240    2.3190 c3        1 MOL      0.045923
     24 C10         2.8760    5.0220    1.8510 c3        1 MOL     -0.067866
     25 C11         3.1870    6.3250    2.5320 c3        1 MOL     -0.086151
     26 C12         2.2900    7.5270    2.0340 c3        1 MOL      0.066287
     27 N3          2.7220    8.8610    2.4230 n4        1 MOL     -0.438179
     28 H8          4.8090    3.7780   -0.1960 hn        1 MOL      0.216163
     29 H9          5.5260    5.0560    2.3460 h1        1 MOL      0.003885
     30 H10         3.7360    3.7240    3.3820 hc        1 MOL     -0.001421
     31 H11         3.4980    2.9570    1.9730 hc        1 MOL     -0.001421
     32 H12         1.8670    4.7740    2.1900 hc        1 MOL      0.015121
     33 H13         2.9470    5.0400    0.7660 hc        1 MOL      0.015121
     34 H14         4.2010    6.6700    2.3770 hc        1 MOL      0.060937
     35 H15         3.0010    6.1910    3.6030 hc        1 MOL      0.060937
     36 H16         1.2290    7.4250    2.2310 hx        1 MOL      0.071953
     37 H17         2.3130    7.5620    0.9500 hx        1 MOL      0.071953
     38 H18         2.1190    9.6080    2.1150 hn        1 MOL      0.341635
     39 H19         2.7070    8.8680    3.4250 hn        1 MOL      0.341635
     40 H20         3.6800    9.0230    2.1530 hn        1 MOL      0.341635
     41 N4          6.7810    1.9870    1.9320 n         1 MOL     -0.411919
     42 C13         6.1630    1.1320    0.8360 c3        1 MOL      0.008399
     43 C14         7.2410    0.1550    0.2720 c         1 MOL      0.369315
     44 O6          7.7710   -0.6540    1.0310 o         1 MOL     -0.505900
     45 C15         5.0140    0.3130    1.4440 c3        1 MOL     -0.085549
     46 C16         4.4300   -0.6360    0.3190 c         1 MOL      0.515353
     47 O7          4.1300   -0.1590   -0.7750 o         1 MOL     -0.670963
     48 O8          4.4390   -1.8630    0.5010 o         1 MOL     -0.670963
     49 H21         7.4380    1.4700    2.5080 hn        1 MOL      0.312766
     50 H22         5.8510    1.7760    0.0150 h1        1 MOL      0.056489
     51 H23         4.2430    1.0020    1.7810 hc        1 MOL      0.019642
     52 H24         5.4360   -0.2890    2.2370 hc        1 MOL      0.019642
     53 N5          7.6990    0.2120   -0.9630 n         1 MOL     -0.079111
     54 C17         8.7630   -0.6930   -1.4710 c3        1 MOL     -0.290166
     55 C18         8.2920   -2.0620   -2.0640 c         1 MOL      0.506413
     56 O9          8.8410   -2.5840   -2.9700 o         1 MOL     -0.529289
     57 H25         7.3700    0.9280   -1.6000 hn        1 MOL      0.221876
     58 H26         9.5110   -0.8780   -0.6950 h1        1 MOL      0.150031
     59 H27         9.2880   -0.1500   -2.2570 h1        1 MOL      0.150031
     60 N6          7.2030   -2.6340   -1.4770 n         1 MOL     -0.195577
     61 C19         6.5780   -3.8630   -1.8350 c3        1 MOL     -0.087066
     62 C20         6.5480   -4.1440   -3.3630 c         1 MOL      0.688478
     63 O10         6.8530   -5.2220   -3.8140 o         1 MOL     -0.581606
     64 C21         7.2140   -4.9810   -1.0420 c3        1 MOL     -0.055549
     65 C22         6.9190   -4.7890    0.4670 c         1 MOL      0.534128
     66 O11         7.9090   -4.6350    1.2400 o         1 MOL     -0.645350
     67 O12         5.7040   -4.7970    0.8850 o         1 MOL     -0.645350
     68 H28         6.7390   -2.1280   -0.7410 hn        1 MOL      0.213297
     69 H29         5.5330   -3.8010   -1.5610 h1        1 MOL      0.081938
     70 H30         8.2870   -5.1620   -1.1400 hc        1 MOL      0.033205
     71 H31         6.6950   -5.8950   -1.3400 hc        1 MOL      0.033205
     72 N7          6.0540   -3.2560   -4.2390 n         1 MOL     -0.527738
     73 C23         5.0510   -2.2620   -3.8570 c3        1 MOL      0.015050
     74 C24         3.7150   -2.8730   -3.5490 c         1 MOL      0.536022
     75 O13         3.1840   -3.6010   -4.3530 o         1 MOL     -0.558215
     76 H32         6.1090   -3.4790   -5.2220 hn        1 MOL      0.317278
     77 H33         4.9260   -1.5220   -4.6500 h1        1 MOL      0.058597
     78 H34         5.3440   -1.7220   -2.9570 h1        1 MOL      0.058597
     79 N8          3.1990   -2.5820   -2.3470 n         1 MOL     -0.476056
     80 C25         1.8650   -3.1450   -1.8370 c3        1 MOL     -0.013948
     81 C26         1.2230   -2.3750   -0.7080 c         1 MOL      0.770735
     82 O14         1.6410   -2.4930    0.4690 o         1 MOL     -0.570994
     83 C27         1.9430   -4.6430   -1.5630 c3        1 MOL      0.457412
     84 C28         0.6880   -5.2140   -1.0220 c3        1 MOL     -0.363524
     85 O15         3.0860   -4.9640   -0.7470 oh        1 MOL     -0.749550
     86 H35         3.7270   -1.9590   -1.7590 hn        1 MOL      0.319043
     87 H36         1.1110   -3.0320   -2.6110 h1        1 MOL      0.005118
     88 H37         2.1890   -5.0570   -2.5330 h1        1 MOL     -0.011351
     89 H38         3.5330   -5.5790   -1.3260 ho        1 MOL      0.456762
     90 H39         0.5620   -4.9310    0.0250 hc        1 MOL      0.082499
     91 H40        -0.1300   -4.7720   -1.5930 hc        1 MOL      0.082499
     92 H41         0.6780   -6.2890   -1.1820 hc        1 MOL      0.082499
     93 N9          0.3500   -1.4810   -1.0120 n         1 MOL     -0.653245
     94 C29        -0.5700   -0.6930   -0.0670 c3        1 MOL     -0.279998
     95 C30        -1.5700   -1.5820    0.7290 c         1 MOL      0.834612
     96 O16        -1.1870   -2.5220    1.4120 o         1 MOL     -0.563265
     97 C31         0.1540    0.3590    0.9180 c3        1 MOL      0.148837
     98 C32         1.1100    1.3210    0.2300 c3        1 MOL      0.164148
     99 C33        -0.7980    1.1310    1.8430 c3        1 MOL     -0.320028
    100 C34         0.4980    2.1360   -0.9790 c3        1 MOL     -0.471085
    101 H42         0.2590   -1.2640   -1.9940 hn        1 MOL      0.394758
    102 H43        -1.0970   -0.0460   -0.7730 h1        1 MOL      0.126484
    103 H44         0.8370   -0.2080    1.5460 hc        1 MOL     -0.013938
    104 H45         1.9520    0.7970   -0.2240 hc        1 MOL      0.057396
    105 H46         1.6050    2.0780    0.8300 hc        1 MOL      0.057396
    106 H47        -1.4720    0.4230    2.3180 hc        1 MOL      0.068305
    107 H48        -0.2980    1.6650    2.6520 hc        1 MOL      0.068305
    108 H49        -1.3640    1.8550    1.2640 hc        1 MOL      0.068305
    109 H50         0.2050    1.4410   -1.7620 hc        1 MOL      0.117663
    110 H51        -0.3200    2.7250   -0.5830 hc        1 MOL      0.117663
    111 H52         1.2670    2.7800   -1.4100 hc        1 MOL      0.117663
    112 N10        -2.8600   -1.3330    0.4900 n         1 MOL     -0.440094
    113 C35        -3.9000   -2.1940    1.0730 c3        1 MOL     -0.267354
    114 C36        -5.2280   -2.1610    0.3300 c         1 MOL      0.645454
    115 O17        -5.4190   -1.1160   -0.3190 o         1 MOL     -0.551297
    116 C37        -4.2110   -1.8150    2.5290 c3        1 MOL      0.418913
    117 C38        -4.3670   -0.2950    2.8210 c3        1 MOL     -0.274340
    118 O18        -3.1670   -2.4240    3.3100 oh        1 MOL     -0.601571
    119 H53        -3.1410   -0.5000    0.0020 hn        1 MOL      0.308778
    120 H54        -3.5370   -3.2200    0.9660 h1        1 MOL      0.125389
    121 H55        -5.1390   -2.2520    2.8720 h1        1 MOL      0.033190
    122 H56        -2.4300   -2.2650    2.7150 ho        1 MOL      0.295544
    123 H57        -3.6560    0.3520    2.3230 hc        1 MOL      0.087385
    124 H58        -5.3450    0.0520    2.4790 hc        1 MOL      0.087385
    125 H59        -4.4070   -0.1190    3.9010 hc        1 MOL      0.087385
    126 N11        -6.0550   -3.1610    0.5030 n         1 MOL     -0.397687
    127 C39        -7.3520   -3.2380   -0.2020 c3        1 MOL     -0.333127
    128 C40        -8.3590   -2.1670    0.2230 c         1 MOL      0.758712
    129 O19        -8.3760   -1.7930    1.3940 o         1 MOL     -0.491385
    130 C41        -8.0280   -4.6270   -0.1340 c3        1 MOL      0.461856
    131 C42        -7.1760   -5.6080   -0.8530 c3        1 MOL     -0.298582
    132 O20        -8.0450   -5.1410    1.1740 oh        1 MOL     -0.632944
    133 H60        -5.7630   -3.9650    1.0360 hn        1 MOL      0.299822
    134 H61        -7.0940   -3.0780   -1.2460 h1        1 MOL      0.128614
    135 H62        -9.0660   -4.6600   -0.4680 h1        1 MOL     -0.012758
    136 H63        -7.8490   -6.0800    1.1030 ho        1 MOL      0.403703
    137 H64        -6.1080   -5.4470   -0.7030 hc        1 MOL      0.074719
    138 H65        -7.4290   -6.6050   -0.4900 hc        1 MOL      0.074719
    139 H66        -7.4730   -5.4880   -1.8970 hc        1 MOL      0.074719
    140 N12        -9.1060   -1.6080   -0.7110 n         1 MOL     -0.597917
    141 C43       -10.0900   -0.5200   -0.5890 c3        1 MOL      0.002289
    142 C44        -9.6760    0.7140    0.2190 c         1 MOL      0.515424
    143 O21        -9.6100    0.7380    1.4890 o         1 MOL     -0.480152
    144 C45       -11.4110   -1.0700   -0.2320 c3        1 MOL     -0.151398
    145 C46       -12.4940    0.0080   -0.5630 c3        1 MOL      0.058377
    146 C47       -13.8880   -0.4980   -0.3060 c3        1 MOL      0.023971
    147 C48       -14.3780   -1.4110   -1.3690 c3        1 MOL      0.119455
    148 N13       -15.8260   -1.7250   -1.2920 n4        1 MOL     -0.348891
    149 H67        -9.0870   -2.0490   -1.6210 hn        1 MOL      0.290475
    150 H68       -10.2230   -0.1440   -1.6020 h1        1 MOL      0.118021
    151 H69       -11.4250   -1.4360    0.7910 hc        1 MOL      0.070892
    152 H70       -11.5440   -1.9540   -0.8560 hc        1 MOL      0.070892
    153 H71       -12.3830    0.2470   -1.6170 hc        1 MOL     -0.016274
    154 H72       -12.4250    0.8940    0.0690 hc        1 MOL     -0.016274
    155 H73       -14.5940    0.3350   -0.3560 hc        1 MOL      0.034156
    156 H74       -13.9380   -0.9590    0.6780 hc        1 MOL      0.034156
    157 H75       -13.8190   -2.3600   -1.3760 hx        1 MOL      0.038762
    158 H76       -14.1410   -1.0030   -2.3580 hx        1 MOL      0.038762
    159 H77       -15.8930   -1.8970   -0.3020 hn        1 MOL      0.270962
    160 H78       -16.4080   -0.9600   -1.5880 hn        1 MOL      0.270962
    161 H79       -16.2110   -2.5540   -1.7240 hn        1 MOL      0.270962
    162 N14        -9.3460    1.8220   -0.5180 n         1 MOL     -0.351497
    163 C49        -8.8240    3.1200   -0.0130 c3        1 MOL      0.173336
    164 C50        -7.2770    3.2550    0.0220 c         1 MOL      0.372891
    165 O22        -6.7720    3.6910    1.0640 o         1 MOL     -0.555008
    166 C51        -9.4050    4.3590   -0.5870 c3        1 MOL     -0.086868
    167 C52       -10.9650    4.4610   -0.5570 c3        1 MOL     -0.233722
    168 C53       -11.4860    5.4520   -1.6290 c         1 MOL      0.615834
    169 O23       -10.9890    5.4250   -2.8420 o         1 MOL     -0.651005
    170 O24       -12.2150    6.4020   -1.2250 o         1 MOL     -0.651005
    171 H80        -9.3190    1.7340   -1.5220 hn        1 MOL      0.210883
    172 H81        -9.1260    3.1580    1.0260 h1        1 MOL      0.052638
    173 H82        -8.9920    4.4120   -1.5870 hc        1 MOL      0.076258
    174 H83        -8.9570    5.2870   -0.2390 hc        1 MOL      0.076258
    175 H84       -11.2390    4.8550    0.4230 hc        1 MOL      0.065633
    176 H85       -11.4370    3.4920   -0.7030 hc        1 MOL      0.065633
    177 N15        -6.4060    2.8740   -0.9240 n         1 MOL     -0.256658
    178 C54        -6.7000    2.4860   -2.3180 c3        1 MOL     -0.136318
    179 H86        -6.0520    1.6600   -2.6090 h1        1 MOL      0.066853
    180 H87        -7.7420    2.1760   -2.3970 h1        1 MOL      0.066853
    181 H88        -6.5220    3.3360   -2.9770 h1        1 MOL      0.066853
    182 H89        -5.4590    2.9500   -0.5790 hn        1 MOL      0.260574
    183 Ca1         3.4420   -3.7530    1.7740 Ca        1 MOL      1.632096
    184 O25         2.7960   -6.2030    2.0680 oh        1 MOL     -0.772581
    185 H90         2.6150   -6.6330    2.9070 ho        1 MOL      0.382649
    186 H91         2.4090   -6.7920    1.4120 ho        1 MOL      0.382649
    187 O26         3.2240   -1.4270    3.3050 oh        1 MOL     -0.772581
    188 H92         3.8800   -1.2500    3.9720 ho        1 MOL      0.382649
    189 H93         2.4070   -1.0940    3.6740 ho        1 MOL      0.382649
    190 O27         0.7310   -3.3610    2.7390 oh        1 MOL     -0.772581
    191 H94         0.2530   -3.5470    3.5460 ho        1 MOL      0.382649
    192 H95         0.0940   -2.9590    2.1630 ho        1 MOL      0.382649
    193 O28         5.6170   -3.9320    3.4160 oh        1 MOL     -0.772581
    194 H96         6.1340   -4.2040    2.6520 ho        1 MOL      0.382649
    195 H97         6.2660   -3.7900    4.1100 ho        1 MOL      0.382649
    196 O29         3.0170   -4.8750    4.7060 oh        1 MOL     -0.772581
    197 H98         3.7480   -4.3150    5.0020 ho        1 MOL      0.382649
    198 H99         2.2300   -4.3740    4.9160 ho        1 MOL      0.382649
@<TRIPOS>BOND
     1    1    2 1   
     2    1    4 1   
     3    1    5 1   
     4    1    6 1   
     5    2    3 2   
     6    2    7 1   
     7    7    8 1   
     8    7   15 1   
     9    8    9 1   
    10    8   11 1   
    11    8   16 1   
    12    9   10 2   
    13    9   19 1   
    14   11   12 1   
    15   11   17 1   
    16   11   18 1   
    17   12   13 1   
    18   12   14 1   
    19   19   20 1   
    20   19   28 1   
    21   20   21 1   
    22   20   23 1   
    23   20   29 1   
    24   21   22 2   
    25   21   41 1   
    26   23   24 1   
    27   23   30 1   
    28   23   31 1   
    29   24   25 1   
    30   24   32 1   
    31   24   33 1   
    32   25   26 1   
    33   25   34 1   
    34   25   35 1   
    35   26   27 1   
    36   26   36 1   
    37   26   37 1   
    38   27   38 1   
    39   27   39 1   
    40   27   40 1   
    41   41   42 1   
    42   41   49 1   
    43   42   43 1   
    44   42   45 1   
    45   42   50 1   
    46   43   44 2   
    47   43   53 1   
    48   45   46 1   
    49   45   51 1   
    50   45   52 1   
    51   46   47 1   
    52   46   48 1   
    53   53   54 1   
    54   53   57 1   
    55   54   55 1   
    56   54   58 1   
    57   54   59 1   
    58   55   56 2   
    59   55   60 1   
    60   60   61 1   
    61   60   68 1   
    62   61   62 1   
    63   61   64 1   
    64   61   69 1   
    65   62   63 2   
    66   62   72 1   
    67   64   65 1   
    68   64   70 1   
    69   64   71 1   
    70   65   66 1   
    71   65   67 1   
    72   72   73 1   
    73   72   76 1   
    74   73   74 1   
    75   73   77 1   
    76   73   78 1   
    77   74   75 2   
    78   74   79 1   
    79   79   80 1   
    80   79   86 1   
    81   80   81 1   
    82   80   83 1   
    83   80   87 1   
    84   81   82 2   
    85   81   93 1   
    86   83   84 1   
    87   83   85 1   
    88   83   88 1   
    89   84   90 1   
    90   84   91 1   
    91   84   92 1   
    92   85   89 1   
    93   93   94 1   
    94   93  101 1   
    95   94   95 1   
    96   94   97 1   
    97   94  102 1   
    98   95   96 2   
    99   95  112 1   
   100   97   98 1   
   101   97   99 1   
   102   97  103 1   
   103   98  100 1   
   104   98  104 1   
   105   98  105 1   
   106   99  106 1   
   107   99  107 1   
   108   99  108 1   
   109  100  109 1   
   110  100  110 1   
   111  100  111 1   
   112  112  113 1   
   113  112  119 1   
   114  113  114 1   
   115  113  116 1   
   116  113  120 1   
   117  114  115 2   
   118  114  126 1   
   119  116  117 1   
   120  116  118 1   
   121  116  121 1   
   122  117  123 1   
   123  117  124 1   
   124  117  125 1   
   125  118  122 1   
   126  126  127 1   
   127  126  133 1   
   128  127  128 1   
   129  127  130 1   
   130  127  134 1   
   131  128  129 2   
   132  128  140 1   
   133  130  131 1   
   134  130  132 1   
   135  130  135 1   
   136  131  137 1   
   137  131  138 1   
   138  131  139 1   
   139  132  136 1   
   140  140  141 1   
   141  140  149 1   
   142  141  142 1   
   143  141  144 1   
   144  141  150 1   
   145  142  143 2   
   146  142  162 1   
   147  144  145 1   
   148  144  151 1   
   149  144  152 1   
   150  145  146 1   
   151  145  153 1   
   152  145  154 1   
   153  146  147 1   
   154  146  155 1   
   155  146  156 1   
   156  147  148 1   
   157  147  157 1   
   158  147  158 1   
   159  148  159 1   
   160  148  160 1   
   161  148  161 1   
   162  162  163 1   
   163  162  171 1   
   164  163  164 1   
   165  163  166 1   
   166  163  172 1   
   167  164  165 2   
   168  164  177 1   
   169  166  167 1   
   170  166  173 1   
   171  166  174 1   
   172  167  168 1   
   173  167  175 1   
   174  167  176 1   
   175  168  169 1   
   176  168  170 1   
   177  177  178 1   
   178  177  182 1   
   179  178  179 1   
   180  178  180 1   
   181  178  181 1   
   182  184  185 1   
   183  184  186 1   
   184  187  188 1   
   185  187  189 1   
   186  190  191 1   
   187  190  192 1   
   188  193  194 1   
   189  193  195 1   
   190  196  197 1   
   191  196  198 1   
@<TRIPOS>SUBSTRUCTURE
     1 MOL         1 TEMP              0 ****  ****    0 ROOT
