@<TRIPOS>MOLECULE
MOL
  181   177     1     0     0
SMALL
resp


@<TRIPOS>ATOM
      1 C1          1.1600    6.4910   -1.7410 c3        1 MOL     -0.407762
      2 C2          2.5800    6.4370   -1.1650 c         1 MOL      0.656611
      3 O1          2.8180    6.9660   -0.0910 o         1 MOL     -0.582402
      4 H1          1.1760    6.1480   -2.7760 hc        1 MOL      0.104635
      5 H2          0.5050    5.8460   -1.1560 hc        1 MOL      0.104635
      6 H3          0.7900    7.5160   -1.7040 hc        1 MOL      0.104635
      7 N1          3.5960    5.9920   -1.9060 n         1 MOL     -0.473721
      8 C3          4.9760    5.9530   -1.4590 c3        1 MOL      0.138013
      9 C4          5.3360    4.7670   -0.4380 c         1 MOL      0.609292
     10 O2          5.9390    3.7530   -0.7050 o         1 MOL     -0.513366
     11 C5          6.0530    6.0220   -2.5840 c3        1 MOL     -0.250112
     12 C6          7.4660    6.1440   -2.1490 c         1 MOL      0.760377
     13 O3          8.2970    5.2960   -2.5610 o         1 MOL     -0.741332
     14 O4          7.7800    7.0510   -1.3780 o         1 MOL     -0.741332
     15 H4          3.3610    5.6070   -2.8130 hn        1 MOL      0.278958
     16 H5          5.1280    6.8360   -0.8290 h1        1 MOL      0.022633
     17 H6          5.8240    6.8070   -3.3030 hc        1 MOL      0.017060
     18 H7          5.9470    5.0800   -3.1270 hc        1 MOL      0.017060
     19 N2          4.7160    4.9510    0.7230 n         1 MOL     -0.618499
     20 C7          4.7750    4.0590    1.8770 c3        1 MOL      0.348977
     21 C8          3.6170    3.0630    1.8680 c         1 MOL      0.492072
     22 O5          2.5270    3.3900    1.4050 o         1 MOL     -0.618449
     23 C9          4.6570    4.9990    3.1590 c3        1 MOL     -0.468757
     24 H8          4.1800    5.8070    0.8220 hn        1 MOL      0.331800
     25 H9          5.7290    3.5440    1.9580 h1        1 MOL      0.020798
     26 H10         3.7970    5.6590    3.0400 hc        1 MOL      0.126641
     27 H11         4.5810    4.3390    4.0150 hc        1 MOL      0.126641
     28 H12         5.4780    5.7170    3.1360 hc        1 MOL      0.126641
     29 N3          3.7130    1.8140    2.2550 n         1 MOL     -0.312347
     30 C10         4.8370    1.1400    2.8700 c3        1 MOL      0.028234
     31 C11         5.5670    0.1890    2.0530 c         1 MOL      0.382998
     32 O6          5.0460   -0.2660    0.9810 o         1 MOL     -0.480325
     33 C12         4.2230    0.4380    4.0820 c3        1 MOL      0.015057
     34 C13         3.1430   -0.5430    3.8170 c         1 MOL      0.581458
     35 O7          3.0000   -1.5070    4.6510 o         1 MOL     -0.643840
     36 O8          2.5550   -0.5790    2.7120 o         1 MOL     -0.643840
     37 H13         2.9370    1.2110    1.9910 hn        1 MOL      0.213262
     38 H14         5.5610    1.8680    3.2230 h1        1 MOL      0.026654
     39 H15         3.8130    1.2380    4.6930 hc        1 MOL     -0.018749
     40 H16         5.0460    0.0330    4.6760 hc        1 MOL     -0.018749
     41 N4          6.7370   -0.2830    2.5540 n         1 MOL     -0.198721
     42 C14         7.5260   -1.3990    1.9550 c3        1 MOL     -0.375500
     43 C15         8.4590   -0.8670    0.7530 c         1 MOL      0.654221
     44 O9          9.2640    0.0140    0.9940 o         1 MOL     -0.538770
     45 H17         7.1060    0.2280    3.3400 hn        1 MOL      0.270508
     46 H18         6.8600   -2.1930    1.6360 h1        1 MOL      0.157472
     47 H19         8.3090   -1.7290    2.6350 h1        1 MOL      0.157472
     48 N5          8.5130   -1.5410   -0.3820 n         1 MOL     -0.502981
     49 C16         7.6080   -2.6230   -0.8120 c3        1 MOL      0.202991
     50 C17         6.6310   -2.2630   -1.9510 c         1 MOL      0.532193
     51 O10         6.7780   -1.1500   -2.4380 o         1 MOL     -0.478099
     52 C18         8.4860   -3.8140   -1.2580 c3        1 MOL     -0.329562
     53 C19         9.3710   -4.1950   -0.1520 c         1 MOL      0.752405
     54 N6          8.7740   -4.7180    0.9120 n         1 MOL     -0.878786
     55 O11        10.5760   -4.1450   -0.2590 o         1 MOL     -0.571706
     56 H20         9.2860   -1.2220   -0.9550 hn        1 MOL      0.331414
     57 H21         7.0320   -2.9990    0.0330 h1        1 MOL     -0.045058
     58 H22         9.1520   -3.4190   -2.0300 hc        1 MOL      0.083790
     59 H23         7.8500   -4.6420   -1.5800 hc        1 MOL      0.083790
     60 H24         7.7970   -4.9110    0.7890 hn        1 MOL      0.393451
     61 H25         9.3730   -5.0070    1.6770 hn        1 MOL      0.393451
     62 N7          5.6140   -3.0650   -2.2510 n         1 MOL     -0.380024
     63 C20         4.5200   -2.6870   -3.1530 c3        1 MOL     -0.241357
     64 C21         3.3550   -3.7340   -3.1990 c         1 MOL      0.619780
     65 O12         3.3550   -4.6570   -4.0750 o         1 MOL     -0.546551
     66 H26         5.4430   -3.8740   -1.6730 hn        1 MOL      0.264656
     67 H27         4.9620   -2.4520   -4.1250 h1        1 MOL      0.125674
     68 H28         4.1240   -1.7180   -2.8500 h1        1 MOL      0.125674
     69 N8          2.4770   -3.4990   -2.2280 n         1 MOL     -0.537234
     70 C22         1.1870   -4.2690   -2.1250 c3        1 MOL     -0.070269
     71 C23         0.0500   -3.3850   -1.6100 c         1 MOL      0.658931
     72 O13         0.2060   -2.3970   -0.8980 o         1 MOL     -0.580092
     73 C24         1.1550   -5.4290   -1.0720 c3        1 MOL      0.536631
     74 C25         2.1410   -6.4710   -1.5840 c3        1 MOL     -0.499844
     75 O14         1.5790   -5.0460    0.2160 oh        1 MOL     -0.680249
     76 H29         2.6590   -2.7070   -1.6280 hn        1 MOL      0.421896
     77 H30         0.8200   -4.7640   -3.0220 h1        1 MOL      0.090994
     78 H31         0.1890   -5.9350   -0.9850 h1        1 MOL     -0.016431
     79 H32         1.7600   -5.8550    0.6980 ho        1 MOL      0.405010
     80 H33         2.2570   -7.2650   -0.8450 hc        1 MOL      0.115703
     81 H34         1.8120   -6.8590   -2.5400 hc        1 MOL      0.115703
     82 H35         3.1440   -6.0800   -1.7700 hc        1 MOL      0.115703
     83 N9         -1.2490   -3.7670   -1.9380 n         1 MOL     -0.539861
     84 C26        -2.5340   -3.1650   -1.5490 c3        1 MOL     -0.030624
     85 C27        -2.9290   -3.6630   -0.1260 c         1 MOL      0.477133
     86 O15        -2.8000   -4.8370    0.2360 o         1 MOL     -0.534375
     87 C28        -3.6110   -3.6810   -2.6120 c3        1 MOL      0.327775
     88 C29        -5.0660   -3.0900   -2.3300 c3        1 MOL      0.085254
     89 C30        -3.2190   -3.4890   -4.0570 c3        1 MOL     -0.373951
     90 C31        -6.2080   -3.9500   -2.8780 c3        1 MOL     -0.192571
     91 H36        -1.3600   -4.5500   -2.5750 hn        1 MOL      0.251204
     92 H37        -2.4330   -2.0830   -1.5370 h1        1 MOL      0.105640
     93 H38        -3.6470   -4.7490   -2.3770 hc        1 MOL     -0.043452
     94 H39        -5.0900   -2.1020   -2.7870 hc        1 MOL     -0.034549
     95 H40        -5.2100   -2.9460   -1.2520 hc        1 MOL     -0.034549
     96 H41        -2.8060   -2.4910   -4.2120 hc        1 MOL      0.080385
     97 H42        -2.5020   -4.2530   -4.3610 hc        1 MOL      0.080385
     98 H43        -4.1130   -3.6620   -4.6550 hc        1 MOL      0.080385
     99 H44        -7.1300   -3.5830   -2.4050 hc        1 MOL      0.038282
    100 H45        -6.2780   -3.8510   -3.9690 hc        1 MOL      0.038282
    101 H46        -6.1100   -5.0010   -2.6140 hc        1 MOL      0.038282
    102 N10        -3.4240   -2.7020    0.6310 n         1 MOL     -0.392735
    103 C32        -4.0570   -2.8180    1.9590 c3        1 MOL      0.208170
    104 C33        -5.5240   -2.2870    2.2010 c         1 MOL      0.217088
    105 O16        -6.2880   -2.6070    3.1230 o         1 MOL     -0.502170
    106 C34        -3.2500   -1.9810    3.0100 c3        1 MOL     -0.205042
    107 C35        -1.7270   -2.2140    3.0500 c         1 MOL      0.863824
    108 O17        -1.3730   -3.4030    2.8790 o         1 MOL     -0.759258
    109 O18        -1.0270   -1.2670    3.3110 o         1 MOL     -0.759258
    110 H47        -3.4930   -1.7940    0.1960 hn        1 MOL      0.147607
    111 H48        -4.0200   -3.8460    2.2920 h1        1 MOL      0.076335
    112 H49        -3.6990   -2.2640    3.9670 hc        1 MOL      0.043009
    113 H50        -3.4040   -0.9180    2.8340 hc        1 MOL      0.043009
    114 N11        -5.9110   -1.4270    1.2430 n         1 MOL     -0.044446
    115 C36        -7.1960   -0.6760    1.2310 c3        1 MOL      0.074464
    116 C37        -7.0180    0.7170    0.6800 c         1 MOL      0.328454
    117 O19        -7.2690    0.9400   -0.5040 o         1 MOL     -0.498765
    118 C38        -8.3210   -1.4490    0.4780 c3        1 MOL     -0.392435
    119 C39        -9.6420   -0.6430    0.3800 ca        1 MOL      0.193485
    120 C40       -10.4460   -0.4910    1.5100 ca        1 MOL     -0.187532
    121 C41       -10.0540   -0.1110   -0.9040 ca        1 MOL     -0.187532
    122 C42       -11.5800    0.3310    1.4510 ca        1 MOL     -0.144849
    123 C43       -11.2230    0.6950   -1.0070 ca        1 MOL     -0.144849
    124 C44       -11.9400    0.9390    0.1850 ca        1 MOL     -0.105498
    125 H51        -5.2150   -1.1250    0.5780 hn        1 MOL      0.201976
    126 H52        -7.4950   -0.7080    2.2740 h1        1 MOL      0.052464
    127 H53        -8.4560   -2.3510    1.0890 hc        1 MOL      0.131008
    128 H54        -7.9960   -1.7470   -0.5150 hc        1 MOL      0.131008
    129 H55       -10.1790   -1.0170    2.4130 ha        1 MOL      0.139816
    130 H56        -9.5590   -0.2760   -1.8510 ha        1 MOL      0.139816
    131 H57       -12.2130    0.6400    2.2650 ha        1 MOL      0.115527
    132 H58       -11.5430    1.1390   -1.9420 ha        1 MOL      0.115527
    133 H59       -12.7950    1.6090    0.1960 ha        1 MOL      0.089582
    134 N12        -6.6920    1.6890    1.5130 n         1 MOL     -0.020825
    135 C45        -6.5620    3.1680    1.2190 c3        1 MOL      0.107848
    136 C46        -5.8340    3.5460   -0.0940 c         1 MOL      0.235255
    137 O20        -5.9720    4.6830   -0.5300 o         1 MOL     -0.486149
    138 C47        -5.9940    3.8170    2.4590 c3        1 MOL     -0.217740
    139 C48        -5.3220    2.6520    3.1410 c3        1 MOL      0.146402
    140 C49        -6.2170    1.4620    2.8830 c3        1 MOL     -0.162471
    141 H60        -7.5800    3.5130    1.0800 h1        1 MOL      0.055749
    142 H61        -5.2310    4.5360    2.1730 hc        1 MOL      0.077805
    143 H62        -6.7590    4.2760    3.0800 hc        1 MOL      0.077805
    144 H63        -4.3810    2.5150    2.6300 hc        1 MOL     -0.008593
    145 H64        -5.0640    2.8230    4.1830 hc        1 MOL     -0.008593
    146 H65        -5.5690    0.5920    2.8010 h1        1 MOL      0.065078
    147 H66        -7.1370    1.3960    3.4690 h1        1 MOL      0.065078
    148 N13        -5.0370    2.6590   -0.7120 n         1 MOL     -0.061696
    149 C50        -4.3980    2.9370   -1.9630 c3        1 MOL     -0.251508
    150 C51        -5.4430    3.1540   -3.1020 c         1 MOL      0.494786
    151 O21        -5.3170    4.0260   -3.9120 o         1 MOL     -0.541062
    152 C52        -3.3730    1.8610   -2.2880 c3        1 MOL     -0.132235
    153 C53        -2.3320    1.6010   -1.1830 c3        1 MOL     -0.160586
    154 C54        -2.7140    0.4140   -0.2220 c         1 MOL      0.611179
    155 O22        -1.7890   -0.1310    0.4350 o         1 MOL     -0.647434
    156 O23        -3.9200    0.0670   -0.1030 o         1 MOL     -0.647434
    157 H67        -4.8710    1.7430   -0.3250 hn        1 MOL      0.247515
    158 H68        -3.8470    3.8560   -1.7470 h1        1 MOL      0.143627
    159 H69        -2.7710    2.1930   -3.1310 hc        1 MOL      0.066173
    160 H70        -3.8560    0.9020   -2.4610 hc        1 MOL      0.066173
    161 H71        -2.2020    2.4820   -0.5580 hc        1 MOL      0.079106
    162 H72        -1.3600    1.4390   -1.6540 hc        1 MOL      0.079106
    163 N14        -6.4930    2.3910   -3.1540 n         1 MOL     -0.108950
    164 C55        -7.5690    2.6080   -4.1600 c3        1 MOL     -0.372915
    165 H73        -7.2050    2.3220   -5.1470 h1        1 MOL      0.132410
    166 H74        -8.4360    2.0000   -3.9030 h1        1 MOL      0.132410
    167 H75        -7.8530    3.6610   -4.1690 h1        1 MOL      0.132410
    168 H76        -6.5530    1.5300   -2.6130 hn        1 MOL      0.201658
    169 Ca1         0.4590   -0.8030    1.2100 Ca        1 MOL      1.716875
    170 O24         2.9580   -1.8350    0.1090 oh        1 MOL     -0.919502
    171 H77         3.2700   -2.6180    0.5700 ho        1 MOL      0.440630
    172 H78         3.5640   -1.1460    0.3770 ho        1 MOL      0.440630
    173 O25         0.2830    1.9670    1.6510 oh        1 MOL     -0.919502
    174 H79         0.8310    2.7330    1.4660 ho        1 MOL      0.440630
    175 H80        -0.5700    2.3310    1.8930 ho        1 MOL      0.440630
    176 O26         1.0680   -3.1920    2.2170 oh        1 MOL     -0.919502
    177 H81         0.2220   -3.3440    2.6440 ho        1 MOL      0.440630
    178 H82         1.2230   -3.9900    1.7180 ho        1 MOL      0.440630
    179 O27         1.6130    0.7820   -0.6500 oh        1 MOL     -0.919502
    180 H83         2.5560    0.6460   -0.7080 ho        1 MOL      0.440630
    181 H84         1.4740    1.6640   -1.0000 ho        1 MOL      0.440630
@<TRIPOS>BOND
     1    1    2 1   
     2    1    4 1   
     3    1    5 1   
     4    1    6 1   
     5    2    3 2   
     6    2    7 1   
     7    7    8 1   
     8    7   15 1   
     9    8    9 1   
    10    8   11 1   
    11    8   16 1   
    12    9   10 2   
    13    9   19 1   
    14   11   12 1   
    15   11   17 1   
    16   11   18 1   
    17   12   13 1   
    18   12   14 1   
    19   19   20 1   
    20   19   24 1   
    21   20   21 1   
    22   20   23 1   
    23   20   25 1   
    24   21   22 2   
    25   21   29 1   
    26   23   26 1   
    27   23   27 1   
    28   23   28 1   
    29   29   30 1   
    30   29   37 1   
    31   30   31 1   
    32   30   33 1   
    33   30   38 1   
    34   31   32 2   
    35   31   41 1   
    36   33   34 1   
    37   33   39 1   
    38   33   40 1   
    39   34   35 1   
    40   34   36 1   
    41   41   42 1   
    42   41   45 1   
    43   42   43 1   
    44   42   46 1   
    45   42   47 1   
    46   43   44 2   
    47   43   48 1   
    48   48   49 1   
    49   48   56 1   
    50   49   50 1   
    51   49   52 1   
    52   49   57 1   
    53   50   51 2   
    54   50   62 1   
    55   52   53 1   
    56   52   58 1   
    57   52   59 1   
    58   53   54 1   
    59   53   55 2   
    60   54   60 1   
    61   54   61 1   
    62   62   63 1   
    63   62   66 1   
    64   63   64 1   
    65   63   67 1   
    66   63   68 1   
    67   64   65 2   
    68   64   69 1   
    69   69   70 1   
    70   69   76 1   
    71   70   71 1   
    72   70   73 1   
    73   70   77 1   
    74   71   72 2   
    75   71   83 1   
    76   73   74 1   
    77   73   75 1   
    78   73   78 1   
    79   74   80 1   
    80   74   81 1   
    81   74   82 1   
    82   75   79 1   
    83   83   84 1   
    84   83   91 1   
    85   84   85 1   
    86   84   87 1   
    87   84   92 1   
    88   85   86 2   
    89   85  102 1   
    90   87   88 1   
    91   87   89 1   
    92   87   93 1   
    93   88   90 1   
    94   88   94 1   
    95   88   95 1   
    96   89   96 1   
    97   89   97 1   
    98   89   98 1   
    99   90   99 1   
   100   90  100 1   
   101   90  101 1   
   102  102  103 1   
   103  102  110 1   
   104  103  104 1   
   105  103  106 1   
   106  103  111 1   
   107  104  105 2   
   108  104  114 1   
   109  106  107 1   
   110  106  112 1   
   111  106  113 1   
   112  107  108 1   
   113  107  109 1   
   114  114  115 1   
   115  114  125 1   
   116  115  116 1   
   117  115  118 1   
   118  115  126 1   
   119  116  117 2   
   120  116  134 1   
   121  118  119 1   
   122  118  127 1   
   123  118  128 1   
   124  119  120 ar  
   125  119  121 ar  
   126  120  122 ar  
   127  120  129 1   
   128  121  123 ar  
   129  121  130 1   
   130  122  124 ar  
   131  122  131 1   
   132  123  124 ar  
   133  123  132 1   
   134  124  133 1   
   135  134  135 1   
   136  134  140 1   
   137  135  136 1   
   138  135  138 1   
   139  135  141 1   
   140  136  137 2   
   141  136  148 1   
   142  138  139 1   
   143  138  142 1   
   144  138  143 1   
   145  139  140 1   
   146  139  144 1   
   147  139  145 1   
   148  140  146 1   
   149  140  147 1   
   150  148  149 1   
   151  148  157 1   
   152  149  150 1   
   153  149  152 1   
   154  149  158 1   
   155  150  151 2   
   156  150  163 1   
   157  152  153 1   
   158  152  159 1   
   159  152  160 1   
   160  153  154 1   
   161  153  161 1   
   162  153  162 1   
   163  154  155 1   
   164  154  156 1   
   165  163  164 1   
   166  163  168 1   
   167  164  165 1   
   168  164  166 1   
   169  164  167 1   
   170  170  171 1   
   171  170  172 1   
   172  173  174 1   
   173  173  175 1   
   174  176  177 1   
   175  176  178 1   
   176  179  180 1   
   177  179  181 1   
@<TRIPOS>SUBSTRUCTURE
     1 MOL         1 TEMP              0 ****  ****    0 ROOT
