@<TRIPOS>MOLECULE
MOL
  191   184     1     0     0
SMALL
resp


@<TRIPOS>ATOM
      1 C1         -6.5240   -0.3600    3.2710 c3        1 MOL     -0.417881
      2 C2         -6.8240   -1.1570    1.8930 c         1 MOL      0.656682
      3 O1         -6.0370   -1.0740    0.9130 o         1 MOL     -0.519754
      4 H1         -7.3120    0.3730    3.4450 hc        1 MOL      0.106416
      5 H2         -6.4940   -1.0650    4.1010 hc        1 MOL      0.106416
      6 H3         -5.5640    0.1520    3.1940 hc        1 MOL      0.106416
      7 N1         -7.9800   -1.8350    1.7520 n         1 MOL     -0.458819
      8 C3         -8.6540   -2.0930    0.4320 c3        1 MOL      0.073796
      9 C4         -8.5800   -1.0070   -0.6740 c         1 MOL      0.542025
     10 O2         -8.5060   -1.3430   -1.8620 o         1 MOL     -0.500775
     11 C5         -8.3410   -3.5180   -0.0880 c3        1 MOL     -0.216934
     12 C6         -8.7750   -4.6630    0.8420 c         1 MOL      0.718668
     13 O3         -8.5080   -5.8230    0.4550 o         1 MOL     -0.677498
     14 O4         -9.3490   -4.4550    1.9230 o         1 MOL     -0.677498
     15 H4         -8.6030   -1.8760    2.5500 hn        1 MOL      0.273867
     16 H5         -9.7160   -2.1990    0.6580 h1        1 MOL      0.027187
     17 H6         -7.2820   -3.5940   -0.3230 hc        1 MOL      0.070881
     18 H7         -8.9090   -3.6090   -1.0190 hc        1 MOL      0.070881
     19 N2         -8.5590    0.2050   -0.2100 n         1 MOL     -0.501437
     20 C7         -8.5180    1.4740   -0.9060 c3        1 MOL     -0.054726
     21 C8         -7.0920    1.9350   -1.3590 c         1 MOL      0.588223
     22 O5         -6.8120    2.8580   -2.0950 o         1 MOL     -0.578677
     23 C9         -9.2640    2.5380   -0.1310 c3        1 MOL     -0.047943
     24 C10       -10.8110    2.4170   -0.0620 c3        1 MOL      0.270423
     25 C11       -11.6300    3.4160    0.6540 c3        1 MOL     -0.110108
     26 C12       -13.0290    2.7760    0.9170 c3        1 MOL      0.011542
     27 N3        -13.7990    3.6910    1.7610 n4        1 MOL     -0.075080
     28 H8         -8.6800    0.2150    0.7920 hn        1 MOL      0.271689
     29 H9         -9.0660    1.3800   -1.8430 h1        1 MOL      0.117930
     30 H10        -9.0780    3.4650   -0.6800 hc        1 MOL      0.007984
     31 H11        -8.8410    2.6560    0.8630 hc        1 MOL      0.007984
     32 H12       -10.9340    1.4800    0.4660 hc        1 MOL     -0.045212
     33 H13       -11.1520    2.2900   -1.0930 hc        1 MOL     -0.045212
     34 H14       -11.6570    4.3380    0.0540 hc        1 MOL      0.032882
     35 H15       -11.1520    3.6530    1.6010 hc        1 MOL      0.032882
     36 H16       -12.9790    1.7660    1.3280 hx        1 MOL      0.080171
     37 H17       -13.4890    2.6510   -0.0590 hx        1 MOL      0.080171
     38 H18       -14.5350    3.3220    2.3320 hn        1 MOL      0.173519
     39 H19       -13.2180    3.9680    2.5300 hn        1 MOL      0.173519
     40 H20       -14.1220    4.5640    1.3650 hn        1 MOL      0.173519
     41 N4         -6.0960    1.2880   -0.7600 n         1 MOL     -0.347077
     42 C13        -4.6500    1.7420   -0.9000 c3        1 MOL     -0.080188
     43 C14        -4.1880    1.5050   -2.3690 c         1 MOL      0.554260
     44 O6         -4.4720    0.4580   -2.9800 o         1 MOL     -0.456423
     45 C15        -3.7810    0.9540    0.0510 c3        1 MOL      0.021207
     46 C16        -2.4010    1.4360    0.1270 c         1 MOL      0.876643
     47 O7         -1.9950    2.0520    1.0990 o         1 MOL     -0.880786
     48 O8         -1.6630    1.1770   -0.8400 o         1 MOL     -0.880786
     49 H21        -6.3850    0.5130   -0.1880 hn        1 MOL      0.249442
     50 H22        -4.5960    2.7940   -0.6160 h1        1 MOL      0.030281
     51 H23        -3.8120   -0.0540   -0.3660 hc        1 MOL     -0.019391
     52 H24        -4.2220    0.7020    1.0050 hc        1 MOL     -0.019391
     53 N5         -3.4250    2.4410   -2.8810 n         1 MOL     -0.283371
     54 C17        -2.6750    2.5550   -4.1810 c3        1 MOL     -0.074090
     55 C18        -1.8620    1.3370   -4.5910 c         1 MOL      0.466127
     56 O9         -1.7940    1.0930   -5.7990 o         1 MOL     -0.525035
     57 H25        -3.3800    3.2750   -2.3140 hn        1 MOL      0.210167
     58 H26        -2.0170    3.4220   -4.1710 h1        1 MOL      0.092848
     59 H27        -3.3430    2.7440   -5.0260 h1        1 MOL      0.092848
     60 N6         -1.3160    0.5480   -3.6360 n         1 MOL     -0.170902
     61 C19        -0.6400   -0.7140   -3.6410 c3        1 MOL      0.066709
     62 C20        -1.2590   -1.8190   -2.7690 c         1 MOL      0.443747
     63 O10        -0.4740   -2.7050   -2.3850 o         1 MOL     -0.541919
     64 C21         0.8920   -0.5450   -3.3830 c3        1 MOL     -0.771842
     65 C22         1.5800    0.3540   -4.4230 c         1 MOL      0.808967
     66 N7          1.3670    0.1640   -5.6680 n         1 MOL     -0.839531
     67 O11         2.0120    1.4450   -4.1270 o         1 MOL     -0.616243
     68 H28        -1.5430    0.9370   -2.7260 hn        1 MOL      0.158733
     69 H29        -0.7740   -1.0860   -4.6540 h1        1 MOL      0.061793
     70 H30         1.2590   -1.5330   -3.6650 hc        1 MOL      0.284528
     71 H31         1.0340   -0.1610   -2.3670 hc        1 MOL      0.284528
     72 H32         0.9440   -0.7170   -5.9190 hn        1 MOL      0.410113
     73 H33         1.5390    0.9060   -6.3300 hn        1 MOL      0.410113
     74 N8         -2.4890   -1.7480   -2.3190 n         1 MOL     -0.081343
     75 C23        -3.2160   -2.6720   -1.4780 c3        1 MOL     -0.319984
     76 C24        -2.5400   -2.8890   -0.1210 c         1 MOL      0.610629
     77 O12        -2.6620   -3.8830    0.5500 o         1 MOL     -0.518548
     78 H34        -2.9790   -0.9100   -2.6100 hn        1 MOL      0.079361
     79 H35        -3.0950   -3.6500   -1.9540 h1        1 MOL      0.161703
     80 H36        -4.2410   -2.3270   -1.3810 h1        1 MOL      0.161703
     81 N9         -1.7730   -1.8850    0.3310 n         1 MOL     -0.455650
     82 C25        -0.9840   -1.8060    1.5770 c3        1 MOL      0.005234
     83 C26         0.3870   -1.1120    1.2900 c         1 MOL      0.523454
     84 O13         0.4870    0.0180    0.7620 o         1 MOL     -0.698858
     85 C27        -1.6780   -1.1180    2.6900 c3        1 MOL     -0.127413
     86 C28        -0.9690   -0.7180    3.9340 ca        1 MOL      0.165075
     87 C29        -0.4780   -1.6680    4.8450 ca        1 MOL     -0.238507
     88 C30        -0.7380    0.6790    4.1480 ca        1 MOL     -0.238507
     89 C31         0.1570   -1.3150    6.0620 ca        1 MOL     -0.155323
     90 C32        -0.1260    0.9780    5.3900 ca        1 MOL     -0.155323
     91 C33         0.3240    0.0380    6.3290 ca        1 MOL      0.202548
     92 O14         0.9130    0.4220    7.4930 oh        1 MOL     -0.358833
     93 H37        -1.8990   -1.0000   -0.1350 hn        1 MOL      0.429818
     94 H38        -0.7550   -2.7550    2.0520 h1        1 MOL      0.095626
     95 H39        -2.4770   -1.7990    2.9830 hc        1 MOL      0.080085
     96 H40        -2.1290   -0.2170    2.2600 hc        1 MOL      0.080085
     97 H41        -0.6790   -2.6860    4.5480 ha        1 MOL      0.164583
     98 H42        -0.9980    1.5280    3.5280 ha        1 MOL      0.164583
     99 H43         0.5330   -2.0650    6.7370 ha        1 MOL      0.118255
    100 H44         0.0330    2.0300    5.5890 ha        1 MOL      0.118255
    101 H45         0.9450    1.3830    7.4730 ho        1 MOL      0.291233
    102 N10         1.4710   -1.7830    1.6110 n         1 MOL     -0.515338
    103 C34         2.8990   -1.4480    1.4050 c3        1 MOL     -0.165499
    104 C35         3.2960   -1.7690   -0.0200 c         1 MOL      0.485555
    105 O15         4.1140   -1.1030   -0.6130 o         1 MOL     -0.505688
    106 C36         3.7100   -2.1370    2.6170 c3        1 MOL      0.088245
    107 C37         3.4120   -1.2870    3.9250 c3        1 MOL      0.351215
    108 C38         5.1820   -2.1850    2.3220 c3        1 MOL     -0.115765
    109 C39         4.0360   -1.7530    5.2290 c3        1 MOL     -0.183666
    110 H46         1.2600   -2.5620    2.2190 hn        1 MOL      0.298150
    111 H47         3.0460   -0.3670    1.4840 h1        1 MOL      0.142617
    112 H48         3.3200   -3.1330    2.7940 hc        1 MOL     -0.009402
    113 H49         2.3910   -1.4600    4.2440 hc        1 MOL     -0.084555
    114 H50         3.4880   -0.2010    3.8640 hc        1 MOL     -0.084555
    115 H51         5.7380   -2.9900    2.8070 hc        1 MOL      0.029499
    116 H52         5.4330   -2.5120    1.3110 hc        1 MOL      0.029499
    117 H53         5.5490   -1.2010    2.6160 hc        1 MOL      0.029499
    118 H54         3.6200   -2.6550    5.6660 hc        1 MOL      0.035426
    119 H55         5.0690   -1.9830    4.9460 hc        1 MOL      0.035426
    120 H56         3.9600   -0.9200    5.9190 hc        1 MOL      0.035426
    121 N11         2.7790   -2.8590   -0.5800 n         1 MOL     -0.192670
    122 C40         3.1380   -3.3110   -2.0150 c3        1 MOL     -0.224463
    123 C41         4.6650   -3.5710   -2.0970 c         1 MOL      0.640496
    124 O16         5.2370   -3.2570   -3.1130 o         1 MOL     -0.496638
    125 C42         2.3490   -4.5550   -2.4210 c3        1 MOL      0.079601
    126 O17         2.7020   -5.6680   -1.6470 oh        1 MOL     -0.618749
    127 H57         2.1380   -3.4540   -0.0900 hn        1 MOL      0.297369
    128 H58         2.9410   -2.4930   -2.7020 h1        1 MOL      0.099572
    129 H59         2.4610   -4.7140   -3.4950 h1        1 MOL      0.059400
    130 H60         1.3110   -4.3210   -2.1690 h1        1 MOL      0.059400
    131 H61         2.2930   -6.3440   -2.1770 ho        1 MOL      0.431480
    132 N12         5.3540   -3.9830   -0.9910 n         1 MOL     -0.279202
    133 C43         6.7370   -4.2550   -0.8120 c3        1 MOL      0.072058
    134 C44         7.6250   -3.0310   -1.1890 c         1 MOL      0.542371
    135 O18         8.6050   -3.2290   -1.9240 o         1 MOL     -0.505560
    136 C45         7.0720   -5.5730   -1.4340 c3        1 MOL     -0.367616
    137 H62         4.6950   -4.1380   -0.2300 hn        1 MOL      0.201688
    138 H63         6.7770   -4.4500    0.2630 h1        1 MOL      0.091896
    139 H64         8.1100   -5.8250   -1.2120 hc        1 MOL      0.106739
    140 H65         6.4760   -6.3230   -0.9190 hc        1 MOL      0.106739
    141 H66         6.7980   -5.5360   -2.4810 hc        1 MOL      0.106739
    142 N13         7.1830   -1.8250   -0.8480 n         1 MOL     -0.605705
    143 C46         7.6620   -0.5750   -1.4270 c3        1 MOL      0.516556
    144 C47         8.0120    0.4850   -0.3320 c         1 MOL      0.379729
    145 O19         7.4030    0.5770    0.7120 o         1 MOL     -0.478328
    146 C48         6.6760   -0.0010   -2.4550 c3        1 MOL     -0.211218
    147 H67         6.2270   -1.7510   -0.5490 hn        1 MOL      0.149994
    148 H68         8.5480   -0.7570   -2.0380 h1        1 MOL     -0.050462
    149 H69         5.7240    0.1200   -1.9260 hc        1 MOL      0.058735
    150 H70         6.9410    0.9440   -2.9230 hc        1 MOL      0.058735
    151 H71         6.4650   -0.7960   -3.1770 hc        1 MOL      0.058735
    152 N14         8.9410    1.4110   -0.5360 n         1 MOL     -0.468857
    153 C49         9.5220    2.3240    0.4920 c3        1 MOL      0.063085
    154 C50         9.8920    1.6740    1.8620 c         1 MOL      0.456304
    155 O20         9.7080    2.3170    2.8530 o         1 MOL     -0.472567
    156 C51         8.7190    3.6080    0.4510 c3        1 MOL      0.156954
    157 C52         8.9110    4.4270   -0.8210 c3        1 MOL     -0.106114
    158 C53         8.4070    5.8640   -0.5420 c         1 MOL      0.653592
    159 O21         7.4030    5.9670    0.2090 o         1 MOL     -0.656715
    160 O22         8.9720    6.8130   -1.1110 o         1 MOL     -0.656715
    161 H72         9.4870    1.4420   -1.3880 hn        1 MOL      0.249631
    162 H73        10.5180    2.5610    0.1090 h1        1 MOL      0.013282
    163 H74         9.0190    4.0990    1.3770 hc        1 MOL     -0.022706
    164 H75         7.6830    3.3250    0.6490 hc        1 MOL     -0.022706
    165 H76         8.3780    3.8980   -1.6010 hc        1 MOL     -0.003599
    166 H77         9.9500    4.5840   -1.1060 hc        1 MOL     -0.003599
    167 N15        10.3810    0.4230    1.8080 n         1 MOL     -0.345190
    168 C54        10.7020   -0.4660    2.9210 c3        1 MOL      0.015083
    169 H78        11.5790   -1.0620    2.6670 h1        1 MOL      0.041770
    170 H79        10.9120    0.1260    3.8110 h1        1 MOL      0.041770
    171 H80         9.8580   -1.1270    3.1140 h1        1 MOL      0.041770
    172 H81        10.4400   -0.0310    0.9100 hn        1 MOL      0.232188
    173 Ca1         0.4020    2.5410    0.2740 Ca        1 MOL      1.874729
    174 O23         2.8100    1.6230   -0.8630 oh        1 MOL     -0.857930
    175 H82         3.6310    2.0880   -0.6960 ho        1 MOL      0.426212
    176 H83         3.0740    0.7460   -1.1310 ho        1 MOL      0.426212
    177 O24        -1.5170    4.4780   -0.4010 oh        1 MOL     -0.857930
    178 H84        -1.9410    4.6720    0.4280 ho        1 MOL      0.426212
    179 H85        -2.2050    4.5940   -1.0590 ho        1 MOL      0.426212
    180 O25         2.4520    4.3250    0.5040 oh        1 MOL     -0.857930
    181 H86         2.1990    4.9330    1.1970 ho        1 MOL      0.426212
    182 H87         3.4080    4.3170    0.5260 ho        1 MOL      0.426212
    183 O26         1.6050    2.0180    2.5910 oh        1 MOL     -0.857930
    184 H88         2.4060    2.3520    2.9860 ho        1 MOL      0.426212
    185 H89         1.0660    1.7240    3.3320 ho        1 MOL      0.426212
    186 O27         0.6370    3.0260   -2.3480 oh        1 MOL     -0.857930
    187 H90         0.4850    3.7690   -2.9240 ho        1 MOL      0.426212
    188 H91         1.2380    2.4590   -2.8360 ho        1 MOL      0.426212
    189 O28        -0.2400    4.4330    2.1720 oh        1 MOL     -0.857930
    190 H92        -0.0570    5.3260    2.4570 ho        1 MOL      0.426212
    191 H93        -1.0810    4.2100    2.5670 ho        1 MOL      0.426212
@<TRIPOS>BOND
     1    1    2 1   
     2    1    4 1   
     3    1    5 1   
     4    1    6 1   
     5    2    3 2   
     6    2    7 1   
     7    7    8 1   
     8    7   15 1   
     9    8    9 1   
    10    8   11 1   
    11    8   16 1   
    12    9   10 2   
    13    9   19 1   
    14   11   12 1   
    15   11   17 1   
    16   11   18 1   
    17   12   13 1   
    18   12   14 1   
    19   19   20 1   
    20   19   28 1   
    21   20   21 1   
    22   20   23 1   
    23   20   29 1   
    24   21   22 2   
    25   21   41 1   
    26   23   24 1   
    27   23   30 1   
    28   23   31 1   
    29   24   25 1   
    30   24   32 1   
    31   24   33 1   
    32   25   26 1   
    33   25   34 1   
    34   25   35 1   
    35   26   27 1   
    36   26   36 1   
    37   26   37 1   
    38   27   38 1   
    39   27   39 1   
    40   27   40 1   
    41   41   42 1   
    42   41   49 1   
    43   42   43 1   
    44   42   45 1   
    45   42   50 1   
    46   43   44 2   
    47   43   53 1   
    48   45   46 1   
    49   45   51 1   
    50   45   52 1   
    51   46   47 1   
    52   46   48 1   
    53   53   54 1   
    54   53   57 1   
    55   54   55 1   
    56   54   58 1   
    57   54   59 1   
    58   55   56 2   
    59   55   60 1   
    60   60   61 1   
    61   60   68 1   
    62   61   62 1   
    63   61   64 1   
    64   61   69 1   
    65   62   63 2   
    66   62   74 1   
    67   64   65 1   
    68   64   70 1   
    69   64   71 1   
    70   65   66 1   
    71   65   67 2   
    72   66   72 1   
    73   66   73 1   
    74   74   75 1   
    75   74   78 1   
    76   75   76 1   
    77   75   79 1   
    78   75   80 1   
    79   76   77 2   
    80   76   81 1   
    81   81   82 1   
    82   81   93 1   
    83   82   83 1   
    84   82   85 1   
    85   82   94 1   
    86   83   84 2   
    87   83  102 1   
    88   85   86 1   
    89   85   95 1   
    90   85   96 1   
    91   86   87 ar  
    92   86   88 ar  
    93   87   89 ar  
    94   87   97 1   
    95   88   90 ar  
    96   88   98 1   
    97   89   91 ar  
    98   89   99 1   
    99   90   91 ar  
   100   90  100 1   
   101   91   92 1   
   102   92  101 1   
   103  102  103 1   
   104  102  110 1   
   105  103  104 1   
   106  103  106 1   
   107  103  111 1   
   108  104  105 2   
   109  104  121 1   
   110  106  107 1   
   111  106  108 1   
   112  106  112 1   
   113  107  109 1   
   114  107  113 1   
   115  107  114 1   
   116  108  115 1   
   117  108  116 1   
   118  108  117 1   
   119  109  118 1   
   120  109  119 1   
   121  109  120 1   
   122  121  122 1   
   123  121  127 1   
   124  122  123 1   
   125  122  125 1   
   126  122  128 1   
   127  123  124 2   
   128  123  132 1   
   129  125  126 1   
   130  125  129 1   
   131  125  130 1   
   132  126  131 1   
   133  132  133 1   
   134  132  137 1   
   135  133  134 1   
   136  133  136 1   
   137  133  138 1   
   138  134  135 2   
   139  134  142 1   
   140  136  139 1   
   141  136  140 1   
   142  136  141 1   
   143  142  143 1   
   144  142  147 1   
   145  143  144 1   
   146  143  146 1   
   147  143  148 1   
   148  144  145 2   
   149  144  152 1   
   150  146  149 1   
   151  146  150 1   
   152  146  151 1   
   153  152  153 1   
   154  152  161 1   
   155  153  154 1   
   156  153  156 1   
   157  153  162 1   
   158  154  155 2   
   159  154  167 1   
   160  156  157 1   
   161  156  163 1   
   162  156  164 1   
   163  157  158 1   
   164  157  165 1   
   165  157  166 1   
   166  158  159 1   
   167  158  160 1   
   168  167  168 1   
   169  167  172 1   
   170  168  169 1   
   171  168  170 1   
   172  168  171 1   
   173  174  175 1   
   174  174  176 1   
   175  177  178 1   
   176  177  179 1   
   177  180  181 1   
   178  180  182 1   
   179  183  184 1   
   180  183  185 1   
   181  186  187 1   
   182  186  188 1   
   183  189  190 1   
   184  189  191 1   
@<TRIPOS>SUBSTRUCTURE
     1 MOL         1 TEMP              0 ****  ****    0 ROOT
