@<TRIPOS>MOLECULE
MOL
  178   175     1     0     0
SMALL
resp


@<TRIPOS>ATOM
      1 C1          2.0780   -1.5190    4.9730 c3        1 MOL     -0.338008
      2 C2          3.3680   -1.0270    4.1740 c         1 MOL      0.616001
      3 O1          3.4180    0.0250    3.5440 o         1 MOL     -0.551755
      4 H1          2.3880   -2.0120    5.8940 hc        1 MOL      0.090233
      5 H2          1.4500   -0.6600    5.2140 hc        1 MOL      0.090233
      6 H3          1.5130   -2.2210    4.3580 hc        1 MOL      0.090233
      7 N1          4.4410   -1.8600    4.2630 n         1 MOL     -0.544424
      8 C3          5.7390   -1.5370    3.6890 c3        1 MOL      0.352848
      9 C4          6.0770   -2.1330    2.2800 c         1 MOL      0.367703
     10 O2          7.1470   -1.8100    1.7310 o         1 MOL     -0.407031
     11 C5          6.7800   -1.8540    4.7610 c3        1 MOL     -0.071386
     12 C6          8.2330   -1.3410    4.4410 c         1 MOL      0.558475
     13 O3          9.1460   -2.1620    4.0120 o         1 MOL     -0.671059
     14 O4          8.3630   -0.0830    4.4560 o         1 MOL     -0.671059
     15 H4          4.3510   -2.6260    4.9230 hn        1 MOL      0.267797
     16 H5          5.8270   -0.4620    3.5200 h1        1 MOL      0.024018
     17 H6          6.7980   -2.9170    4.9890 hc        1 MOL     -0.043973
     18 H7          6.4970   -1.2630    5.6340 hc        1 MOL     -0.043973
     19 N2          5.2010   -3.0450    1.7500 n         1 MOL     -0.503637
     20 C7          5.2200   -3.6860    0.3970 c3        1 MOL      0.405388
     21 C8          5.0330   -2.6590   -0.6920 c         1 MOL      0.355271
     22 O5          4.0760   -2.6930   -1.4300 o         1 MOL     -0.612705
     23 C9          6.5040   -4.5460    0.1980 c3        1 MOL     -0.364318
     24 H8          4.3480   -3.2920    2.2320 hn        1 MOL      0.243556
     25 H9          4.4240   -4.4190    0.2990 h1        1 MOL      0.013337
     26 H10         7.4900   -4.0900    0.3170 hc        1 MOL      0.101109
     27 H11         6.4730   -5.3650    0.9080 hc        1 MOL      0.101109
     28 H12         6.3320   -4.9770   -0.7810 hc        1 MOL      0.101109
     29 N3          5.9720   -1.7120   -0.9400 n         1 MOL     -0.298270
     30 C10         5.9020   -0.7740   -1.9720 c3        1 MOL      0.115573
     31 C11         6.1640    0.7220   -1.5970 c         1 MOL      0.647008
     32 O6          6.6570    1.5470   -2.4090 o         1 MOL     -0.581219
     33 C12         6.8300   -1.1930   -3.1220 c3        1 MOL     -0.233278
     34 C13         6.7570   -2.6640   -3.5520 c         1 MOL      0.866463
     35 O7          5.8840   -2.8990   -4.4870 o         1 MOL     -0.748148
     36 O8          7.6870   -3.5180   -3.2700 o         1 MOL     -0.748148
     37 H13         6.7600   -1.7350   -0.3130 hn        1 MOL      0.177865
     38 H14         4.8750   -0.7200   -2.3450 h1        1 MOL      0.088858
     39 H15         7.8220   -0.8000   -2.9030 hc        1 MOL      0.008104
     40 H16         6.4720   -0.5160   -3.9030 hc        1 MOL      0.008104
     41 N4          5.8320    1.1240   -0.4010 n         1 MOL     -0.418213
     42 C14         5.8900    2.5430   -0.0170 c3        1 MOL     -0.068461
     43 C15         4.7220    3.4160   -0.5130 c         1 MOL      0.539661
     44 O9          4.8730    4.6110   -0.5160 o         1 MOL     -0.536583
     45 H17         5.3130    0.5090    0.2120 hn        1 MOL      0.262447
     46 H18         6.8720    2.9360   -0.2570 h1        1 MOL      0.094618
     47 H19         5.9440    2.5540    1.0720 h1        1 MOL      0.094618
     48 N5          3.6210    2.8060   -0.9270 n         1 MOL     -0.312399
     49 C16         2.5530    3.3500   -1.7710 c3        1 MOL     -0.176984
     50 C17         1.8590    4.6030   -1.2120 c         1 MOL      0.553363
     51 O10         1.6170    4.7680   -0.0540 o         1 MOL     -0.470531
     52 C18         1.5580    2.2010   -1.8850 c3        1 MOL     -0.383695
     53 C19         2.1260    1.0820   -2.7720 c         1 MOL      0.625656
     54 N6          1.8190    1.1970   -4.0690 n         1 MOL     -0.689980
     55 O11         2.7290    0.0680   -2.3070 o         1 MOL     -0.666785
     56 H20         3.5190    1.8160   -0.7430 hn        1 MOL      0.284651
     57 H21         3.0110    3.4950   -2.7530 h1        1 MOL      0.112921
     58 H22         0.6900    2.6320   -2.3880 hc        1 MOL      0.188171
     59 H23         1.3500    1.8080   -0.8920 hc        1 MOL      0.188171
     60 H24         1.2600    2.0130   -4.2540 hn        1 MOL      0.332907
     61 H25         2.1860    0.6110   -4.8060 hn        1 MOL      0.332907
     62 N7          1.5390    5.4810   -2.1550 n         1 MOL     -0.264197
     63 C20         1.0040    6.7910   -1.8510 c3        1 MOL     -0.355640
     64 C21        -0.4950    6.9550   -1.7080 c         1 MOL      0.606000
     65 O12        -1.2680    6.3800   -2.4730 o         1 MOL     -0.525430
     66 H26         1.8100    5.2550   -3.0990 hn        1 MOL      0.253617
     67 H27         1.0460    7.3810   -2.7650 h1        1 MOL      0.146843
     68 H28         1.6120    7.3250   -1.1170 h1        1 MOL      0.146843
     69 N8         -0.9500    7.6720   -0.7150 n         1 MOL     -0.409880
     70 C22        -2.3400    7.8300   -0.3190 c3        1 MOL     -0.281162
     71 C23        -2.9500    6.5420    0.2820 c         1 MOL      0.473048
     72 O13        -4.1120    6.4850    0.6280 o         1 MOL     -0.576590
     73 C24        -2.4920    9.0220    0.6920 c3        1 MOL      0.473188
     74 C25        -1.8230    8.8620    2.1030 c3        1 MOL     -0.245895
     75 O14        -1.9070   10.2360    0.1680 oh        1 MOL     -0.640228
     76 H29        -0.2330    8.2380   -0.2780 hn        1 MOL      0.264128
     77 H30        -2.9740    8.1330   -1.1540 h1        1 MOL      0.171581
     78 H31        -3.5690    9.1800    0.7230 h1        1 MOL      0.035430
     79 H32        -0.9680   10.0590    0.0160 ho        1 MOL      0.363759
     80 H33        -1.3650    9.7780    2.4720 hc        1 MOL      0.059481
     81 H34        -2.6240    8.8070    2.8430 hc        1 MOL      0.059481
     82 H35        -1.0390    8.0970    2.1080 hc        1 MOL      0.059481
     83 N9         -2.1950    5.4750    0.4460 n         1 MOL     -0.049618
     84 C26        -2.6640    4.1720    0.9520 c3        1 MOL      0.030855
     85 C27        -2.3690    3.0740    0.0540 c         1 MOL      0.403049
     86 O15        -1.6060    3.2380   -0.9100 o         1 MOL     -0.464227
     87 C28        -2.0580    3.9440    2.2850 c3        1 MOL      0.062548
     88 C29        -0.5800    4.0540    2.3010 c3        1 MOL     -0.112841
     89 C30        -2.7800    4.7820    3.3040 c3        1 MOL     -0.308575
     90 C31         0.0650    3.6450    3.5520 c3        1 MOL     -0.094650
     91 H36        -1.2090    5.4720    0.2110 hn        1 MOL      0.087461
     92 H37        -3.7340    3.9960    1.0860 h1        1 MOL      0.072729
     93 H38        -2.3630    2.9300    2.5650 hc        1 MOL      0.024473
     94 H39        -0.3040    5.0680    2.0280 hc        1 MOL      0.104861
     95 H40        -0.1680    3.3900    1.5350 hc        1 MOL      0.104861
     96 H41        -3.8580    4.6640    3.2120 hc        1 MOL      0.066745
     97 H42        -2.3250    4.4630    4.2500 hc        1 MOL      0.066745
     98 H43        -2.6310    5.8600    3.3070 hc        1 MOL      0.066745
     99 H44        -0.4350    2.7470    3.9190 hc        1 MOL      0.031224
    100 H45         1.1540    3.5040    3.5130 hc        1 MOL      0.031224
    101 H46        -0.0550    4.4700    4.2450 hc        1 MOL      0.031224
    102 N10        -2.9310    1.8400    0.2130 n         1 MOL     -0.527967
    103 C32        -2.4680    0.6550   -0.5190 c3        1 MOL      0.193887
    104 C33        -3.6360   -0.3700   -0.6970 c         1 MOL      0.407006
    105 O16        -3.4230   -1.6000   -0.7780 o         1 MOL     -0.448290
    106 C34        -1.2230    0.1220    0.1620 c3        1 MOL     -0.023072
    107 C35        -0.2990   -0.7000   -0.7210 c         1 MOL      0.601875
    108 O17         0.6450   -1.3170   -0.1440 o         1 MOL     -0.722139
    109 O18        -0.5050   -0.8720   -1.9100 o         1 MOL     -0.722139
    110 H47        -3.6430    1.6820    0.9260 hn        1 MOL      0.284746
    111 H48        -2.1690    0.9770   -1.5190 h1        1 MOL      0.034385
    112 H49        -1.5930   -0.5150    0.9750 hc        1 MOL      0.011370
    113 H50        -0.6950    0.9680    0.5940 hc        1 MOL      0.011370
    114 N11        -4.9060    0.0510   -0.5990 n         1 MOL     -0.377118
    115 C36        -6.1490   -0.7910   -0.7180 c3        1 MOL      0.063560
    116 C37        -6.1810   -2.0030    0.2110 c         1 MOL      0.334812
    117 O19        -6.0550   -1.8050    1.4350 o         1 MOL     -0.535970
    118 C38        -7.4050    0.0650   -0.5600 c3        1 MOL     -0.215557
    119 C39        -8.6500   -0.8120   -0.7330 ca        1 MOL     -0.050032
    120 C40        -8.8880   -1.3200   -1.9690 ca        1 MOL     -0.083999
    121 C41        -9.5050   -0.9960    0.3640 ca        1 MOL     -0.083999
    122 C42        -9.9670   -2.2080   -2.1820 ca        1 MOL     -0.147243
    123 C43       -10.6310   -1.8130    0.1690 ca        1 MOL     -0.147243
    124 C44       -10.8080   -2.3950   -1.0850 ca        1 MOL     -0.084178
    125 H51        -5.0390    1.0300   -0.4380 hn        1 MOL      0.224527
    126 H52        -6.0110   -1.0200   -1.7800 h1        1 MOL      0.058016
    127 H53        -7.3390    0.8780   -1.2820 hc        1 MOL      0.114364
    128 H54        -7.5270    0.5470    0.4060 hc        1 MOL      0.114364
    129 H55        -8.3510   -0.9890   -2.8440 ha        1 MOL      0.120584
    130 H56        -9.3170   -0.4770    1.2920 ha        1 MOL      0.120584
    131 H57       -10.1620   -2.5580   -3.1850 ha        1 MOL      0.118274
    132 H58       -11.4370   -1.8330    0.9000 ha        1 MOL      0.118274
    133 H59       -11.7440   -2.9100   -1.2700 ha        1 MOL      0.087240
    134 N12        -6.2170   -3.2530   -0.2370 n         1 MOL      0.075871
    135 C45        -6.4850   -4.3860    0.6340 c3        1 MOL      0.146659
    136 C46        -5.3200   -4.5940    1.5750 c         1 MOL      0.266344
    137 O20        -5.4830   -5.0680    2.6730 o         1 MOL     -0.509037
    138 C47        -6.6710   -5.5850   -0.3310 c3        1 MOL     -0.084625
    139 C48        -7.1590   -4.9170   -1.6300 c3        1 MOL     -0.102772
    140 C49        -6.3960   -3.6190   -1.6170 c3        1 MOL      0.219050
    141 H60        -7.3680   -4.0890    1.2080 h1        1 MOL      0.023859
    142 H61        -5.6920   -6.0270   -0.5220 hc        1 MOL      0.040903
    143 H62        -7.3840   -6.2660    0.1380 hc        1 MOL      0.040903
    144 H63        -6.9800   -5.4320   -2.5710 hc        1 MOL      0.019695
    145 H64        -8.1960   -4.6080   -1.5290 hc        1 MOL      0.019695
    146 H65        -5.4180   -3.6760   -2.0960 h1        1 MOL     -0.042999
    147 H66        -6.9660   -2.8930   -2.1940 h1        1 MOL     -0.042999
    148 N13        -4.0850   -4.2110    1.2000 n         1 MOL     -0.143575
    149 C50        -2.9220   -4.2850    2.0750 c3        1 MOL     -0.064919
    150 C51        -2.9210   -3.2620    3.1280 c         1 MOL      0.363580
    151 O21        -2.1600   -3.3960    4.1380 o         1 MOL     -0.585212
    152 C52        -1.5810   -3.9590    1.2440 c3        1 MOL      0.062320
    153 C53        -1.1720   -5.0400    0.2770 c3        1 MOL     -0.296668
    154 C54        -0.0740   -4.4950   -0.6550 c         1 MOL      0.734617
    155 O22         1.0620   -4.1700   -0.2430 o         1 MOL     -0.726478
    156 O23        -0.4190   -4.1480   -1.7820 o         1 MOL     -0.726478
    157 H67        -4.0260   -3.8850    0.2430 hn        1 MOL      0.152960
    158 H68        -2.7700   -5.2880    2.4840 h1        1 MOL      0.104654
    159 H69        -0.8360   -3.6810    1.9930 hc        1 MOL      0.076373
    160 H70        -1.8070   -3.0660    0.6630 hc        1 MOL      0.076373
    161 H71        -2.0850   -5.2940   -0.2660 hc        1 MOL      0.034035
    162 H72        -0.8380   -5.9130    0.8350 hc        1 MOL      0.034035
    163 N14        -3.5590   -2.1670    2.9230 n         1 MOL     -0.012713
    164 C55        -3.7460   -1.1890    4.0380 c3        1 MOL     -0.259230
    165 H73        -3.0280   -1.4010    4.8310 h1        1 MOL      0.099337
    166 H74        -3.5860   -0.1770    3.6650 h1        1 MOL      0.099337
    167 H75        -4.7580   -1.2750    4.4340 h1        1 MOL      0.099337
    168 H76        -4.0590   -2.0440    2.0500 hn        1 MOL      0.164441
    169 Ca1         1.6160   -2.4300   -2.2590 Ca        1 MOL      1.786551
    170 O24         3.4190   -2.1850   -4.3040 oh        1 MOL     -0.840828
    171 H77         4.3400   -2.4620   -4.3590 ho        1 MOL      0.402635
    172 H78         3.3340   -1.5290   -5.0000 ho        1 MOL      0.402635
    173 O25         0.1310   -2.6810   -4.5250 oh        1 MOL     -0.840828
    174 H79        -0.7450   -2.3210   -4.4100 ho        1 MOL      0.402635
    175 H80         0.2070   -2.8430   -5.4690 ho        1 MOL      0.402635
    176 O26         2.4650   -5.1110   -2.7260 oh        1 MOL     -0.840828
    177 H81         3.3690   -5.2010   -3.0190 ho        1 MOL      0.402635
    178 H82         2.2240   -5.9950   -2.4200 ho        1 MOL      0.402635
@<TRIPOS>BOND
     1    1    2 1   
     2    1    4 1   
     3    1    5 1   
     4    1    6 1   
     5    2    3 2   
     6    2    7 1   
     7    7    8 1   
     8    7   15 1   
     9    8    9 1   
    10    8   11 1   
    11    8   16 1   
    12    9   10 2   
    13    9   19 1   
    14   11   12 1   
    15   11   17 1   
    16   11   18 1   
    17   12   13 1   
    18   12   14 1   
    19   19   20 1   
    20   19   24 1   
    21   20   21 1   
    22   20   23 1   
    23   20   25 1   
    24   21   22 2   
    25   21   29 1   
    26   23   26 1   
    27   23   27 1   
    28   23   28 1   
    29   29   30 1   
    30   29   37 1   
    31   30   31 1   
    32   30   33 1   
    33   30   38 1   
    34   31   32 2   
    35   31   41 1   
    36   33   34 1   
    37   33   39 1   
    38   33   40 1   
    39   34   35 1   
    40   34   36 1   
    41   41   42 1   
    42   41   45 1   
    43   42   43 1   
    44   42   46 1   
    45   42   47 1   
    46   43   44 2   
    47   43   48 1   
    48   48   49 1   
    49   48   56 1   
    50   49   50 1   
    51   49   52 1   
    52   49   57 1   
    53   50   51 2   
    54   50   62 1   
    55   52   53 1   
    56   52   58 1   
    57   52   59 1   
    58   53   54 1   
    59   53   55 2   
    60   54   60 1   
    61   54   61 1   
    62   62   63 1   
    63   62   66 1   
    64   63   64 1   
    65   63   67 1   
    66   63   68 1   
    67   64   65 2   
    68   64   69 1   
    69   69   70 1   
    70   69   76 1   
    71   70   71 1   
    72   70   73 1   
    73   70   77 1   
    74   71   72 2   
    75   71   83 1   
    76   73   74 1   
    77   73   75 1   
    78   73   78 1   
    79   74   80 1   
    80   74   81 1   
    81   74   82 1   
    82   75   79 1   
    83   83   84 1   
    84   83   91 1   
    85   84   85 1   
    86   84   87 1   
    87   84   92 1   
    88   85   86 2   
    89   85  102 1   
    90   87   88 1   
    91   87   89 1   
    92   87   93 1   
    93   88   90 1   
    94   88   94 1   
    95   88   95 1   
    96   89   96 1   
    97   89   97 1   
    98   89   98 1   
    99   90   99 1   
   100   90  100 1   
   101   90  101 1   
   102  102  103 1   
   103  102  110 1   
   104  103  104 1   
   105  103  106 1   
   106  103  111 1   
   107  104  105 2   
   108  104  114 1   
   109  106  107 1   
   110  106  112 1   
   111  106  113 1   
   112  107  108 1   
   113  107  109 1   
   114  114  115 1   
   115  114  125 1   
   116  115  116 1   
   117  115  118 1   
   118  115  126 1   
   119  116  117 2   
   120  116  134 1   
   121  118  119 1   
   122  118  127 1   
   123  118  128 1   
   124  119  120 ar  
   125  119  121 ar  
   126  120  122 ar  
   127  120  129 1   
   128  121  123 ar  
   129  121  130 1   
   130  122  124 ar  
   131  122  131 1   
   132  123  124 ar  
   133  123  132 1   
   134  124  133 1   
   135  134  135 1   
   136  134  140 1   
   137  135  136 1   
   138  135  138 1   
   139  135  141 1   
   140  136  137 2   
   141  136  148 1   
   142  138  139 1   
   143  138  142 1   
   144  138  143 1   
   145  139  140 1   
   146  139  144 1   
   147  139  145 1   
   148  140  146 1   
   149  140  147 1   
   150  148  149 1   
   151  148  157 1   
   152  149  150 1   
   153  149  152 1   
   154  149  158 1   
   155  150  151 2   
   156  150  163 1   
   157  152  153 1   
   158  152  159 1   
   159  152  160 1   
   160  153  154 1   
   161  153  161 1   
   162  153  162 1   
   163  154  155 1   
   164  154  156 1   
   165  163  164 1   
   166  163  168 1   
   167  164  165 1   
   168  164  166 1   
   169  164  167 1   
   170  170  171 1   
   171  170  172 1   
   172  173  174 1   
   173  173  175 1   
   174  176  177 1   
   175  176  178 1   
@<TRIPOS>SUBSTRUCTURE
     1 MOL         1 TEMP              0 ****  ****    0 ROOT
