@<TRIPOS>MOLECULE
MOL
  195   189     1     0     0
SMALL
resp


@<TRIPOS>ATOM
      1 C1         -4.0400    6.5390    1.5270 c3        1 MOL     -0.361337
      2 C2         -5.4460    6.1090    1.2210 c         1 MOL      0.758802
      3 O1         -5.9210    6.5240    0.2030 o         1 MOL     -0.557077
      4 H1         -3.3400    5.9070    0.9800 hc        1 MOL      0.086302
      5 H2         -3.9030    7.5770    1.2260 hc        1 MOL      0.086302
      6 H3         -3.8550    6.4440    2.5970 hc        1 MOL      0.086302
      7 N1         -6.0620    5.2370    2.0660 n         1 MOL     -0.741288
      8 C3         -7.4870    4.7340    1.7960 c3        1 MOL      0.355455
      9 C4         -7.5880    3.8660    0.5210 c         1 MOL      0.379844
     10 O2         -6.6370    3.6100   -0.1950 o         1 MOL     -0.480752
     11 C5         -8.5050    5.8950    1.9080 c3        1 MOL     -0.147792
     12 C6         -9.8340    5.5640    2.5460 c         1 MOL      0.616649
     13 O3        -10.3080    6.3300    3.4560 o         1 MOL     -0.683975
     14 O4        -10.4540    4.5650    2.2010 o         1 MOL     -0.683975
     15 H4         -5.6810    4.9320    2.9510 hn        1 MOL      0.350213
     16 H5         -7.6690    4.0830    2.6560 h1        1 MOL      0.019041
     17 H6         -8.6100    6.3870    0.9440 hc        1 MOL      0.023709
     18 H7         -8.0550    6.6570    2.5360 hc        1 MOL      0.023709
     19 N2         -8.8190    3.2940    0.3370 n         1 MOL     -0.503838
     20 C7         -9.2860    2.3040   -0.7460 c3        1 MOL      0.564045
     21 C8         -8.3100    1.0700   -0.9660 c         1 MOL      0.233668
     22 O5         -8.2180    0.6130   -2.0710 o         1 MOL     -0.486246
     23 C9         -9.5860    3.0600   -2.0440 c3        1 MOL     -0.252276
     24 C10       -10.7600    4.0740   -1.9160 c3        1 MOL     -0.040191
     25 C11       -12.1070    3.4170   -2.1290 c3        1 MOL     -0.094203
     26 C12       -13.2670    4.3920   -2.5160 c3        1 MOL     -0.099066
     27 N3        -13.7850    4.9820   -1.3270 n4        1 MOL     -0.221446
     28 H8         -9.5350    3.5610    0.9950 hn        1 MOL      0.177120
     29 H9        -10.2070    1.8490   -0.3770 h1        1 MOL     -0.061009
     30 H10        -9.8200    2.2170   -2.7030 hc        1 MOL      0.089731
     31 H11        -8.6830    3.5860   -2.3250 hc        1 MOL      0.089731
     32 H12       -10.6840    4.7100   -2.7950 hc        1 MOL      0.055084
     33 H13       -10.7420    4.6070   -0.9720 hc        1 MOL      0.055084
     34 H14       -12.4420    2.8460   -1.2600 hc        1 MOL      0.060508
     35 H15       -12.1690    2.6370   -2.8940 hc        1 MOL      0.060508
     36 H16       -13.9990    3.7510   -3.0020 hx        1 MOL      0.114873
     37 H17       -12.8920    5.1370   -3.2280 hx        1 MOL      0.114873
     38 H18       -13.1330    5.6600   -0.9640 hn        1 MOL      0.301928
     39 H19       -14.6400    5.5140   -1.3720 hn        1 MOL      0.301928
     40 H20       -13.9130    4.3420   -0.5580 hn        1 MOL      0.301928
     41 N4         -7.6030    0.6160    0.0140 n         1 MOL     -0.440147
     42 C13        -6.6290   -0.4780   -0.1680 c3        1 MOL      0.384804
     43 C14        -6.4350   -1.5430    0.9500 c         1 MOL      0.395670
     44 O6         -5.9550   -1.2570    2.0400 o         1 MOL     -0.569000
     45 C15        -5.2900    0.2090   -0.5440 c3        1 MOL     -0.298374
     46 C16        -4.1070   -0.6950   -0.9810 c         1 MOL      0.768577
     47 O7         -4.3260   -1.8520   -1.4300 o         1 MOL     -0.795654
     48 O8         -2.9290   -0.2510   -1.0290 o         1 MOL     -0.795654
     49 H21        -7.9810    0.8730    0.9140 hn        1 MOL      0.258037
     50 H22        -6.8040   -1.0310   -1.0930 h1        1 MOL      0.048871
     51 H23        -4.8950    0.6950    0.3530 hc        1 MOL      0.109427
     52 H24        -5.4440    0.9510   -1.3290 hc        1 MOL      0.109427
     53 N5         -6.6960   -2.8160    0.8610 n         1 MOL     -0.391355
     54 C17        -7.0800   -3.6020   -0.3300 c3        1 MOL     -0.107604
     55 C18        -6.2980   -4.9050   -0.4840 c         1 MOL      0.566564
     56 O9         -6.8100   -5.9030    0.0320 o         1 MOL     -0.571948
     57 H25        -6.5260   -3.2530    1.7570 hn        1 MOL      0.332691
     58 H26        -6.9620   -2.9870   -1.2230 h1        1 MOL      0.064192
     59 H27        -8.1280   -3.8840   -0.2150 h1        1 MOL      0.064192
     60 N6         -5.2070   -4.7430   -1.1190 n         1 MOL     -0.345849
     61 C19        -4.2370   -5.8120   -1.4760 c3        1 MOL     -0.061708
     62 C20        -2.8240   -5.6550   -0.8000 c         1 MOL      0.702419
     63 O10        -2.3690   -4.5140   -0.8140 o         1 MOL     -0.717316
     64 C21        -4.3170   -5.9940   -3.0090 c3        1 MOL     -0.150169
     65 C22        -3.8620   -4.8320   -3.9190 c         1 MOL      0.608024
     66 O11        -3.4500   -3.8170   -3.3360 o         1 MOL     -0.666831
     67 O12        -3.9180   -4.8780   -5.1660 o         1 MOL     -0.666831
     68 H28        -4.8740   -3.8040   -1.2780 hn        1 MOL      0.374708
     69 H29        -4.5740   -6.7610   -1.0490 h1        1 MOL      0.034542
     70 H30        -5.3550   -6.2460   -3.2120 hc        1 MOL      0.058045
     71 H31        -3.7510   -6.8580   -3.3470 hc        1 MOL      0.058045
     72 N7         -2.1440   -6.6050   -0.1320 n         1 MOL     -0.475099
     73 C23        -0.7440   -6.5220    0.4400 c3        1 MOL     -0.069068
     74 C24        -0.3360   -5.4940    1.5720 c         1 MOL      0.496774
     75 O13         0.6760   -5.6600    2.1870 o         1 MOL     -0.534516
     76 H32        -2.5970   -7.5120   -0.0670 hn        1 MOL      0.301903
     77 H33         0.0310   -6.3520   -0.3080 h1        1 MOL      0.091439
     78 H34        -0.5730   -7.5630    0.7240 h1        1 MOL      0.091439
     79 N8         -1.2280   -4.5050    1.7920 n         1 MOL     -0.265585
     80 C25        -0.9590   -3.3480    2.5650 c3        1 MOL      0.021411
     81 C26        -0.5520   -2.1920    1.6630 c         1 MOL      0.308454
     82 O14        -0.9190   -2.0860    0.5540 o         1 MOL     -0.455291
     83 C27        -2.1040   -2.8900    3.4040 c3        1 MOL      0.277511
     84 C28        -3.3720   -2.5640    2.6440 c3        1 MOL     -0.106783
     85 O15        -2.4860   -3.9240    4.2200 oh        1 MOL     -0.615962
     86 H35        -2.0660   -4.4310    1.2280 hn        1 MOL      0.211965
     87 H36        -0.1580   -3.4450    3.3100 h1        1 MOL      0.044721
     88 H37        -1.8540   -2.0350    4.0280 h1        1 MOL     -0.000137
     89 H38        -1.9390   -4.0030    5.0100 ho        1 MOL      0.389515
     90 H39        -3.5300   -3.3620    1.9190 hc        1 MOL      0.045774
     91 H40        -4.2230   -2.5900    3.3140 hc        1 MOL      0.045774
     92 H41        -3.2950   -1.6070    2.1410 hc        1 MOL      0.045774
     93 N9          0.2030   -1.2770    2.2020 n         1 MOL      0.016503
     94 C29         0.6430    0.0160    1.6880 c3        1 MOL     -0.438213
     95 C30         2.0470   -0.0360    1.1810 c         1 MOL      0.654251
     96 O16         2.5170    0.8770    0.4570 o         1 MOL     -0.549949
     97 C31         0.2850    1.1710    2.6960 c3        1 MOL      0.097991
     98 C32         1.1980    1.3630    3.8900 c3        1 MOL      0.138316
     99 C33        -1.1990    1.1710    3.1610 c3        1 MOL     -0.059033
    100 C34         1.3000    2.7270    4.4570 c3        1 MOL     -0.183954
    101 H42         0.4300   -1.4540    3.1720 hn        1 MOL      0.155842
    102 H43        -0.0020    0.1690    0.8190 h1        1 MOL      0.206672
    103 H44         0.3580    2.0700    2.0760 hc        1 MOL      0.027074
    104 H45         2.1970    1.0110    3.6330 hc        1 MOL     -0.034221
    105 H46         0.7620    0.6650    4.5910 hc        1 MOL     -0.034221
    106 H47        -1.8840    0.8920    2.3700 hc        1 MOL      0.013263
    107 H48        -1.3950    0.4930    3.9930 hc        1 MOL      0.013263
    108 H49        -1.5510    2.1510    3.4920 hc        1 MOL      0.013263
    109 H50         2.0210    3.3680    3.9660 hc        1 MOL      0.049427
    110 H51         0.3590    3.2800    4.5290 hc        1 MOL      0.049427
    111 H52         1.6810    2.6140    5.4710 hc        1 MOL      0.049427
    112 N10         2.7780   -1.1750    1.3310 n         1 MOL     -0.342289
    113 C35         4.0930   -1.4340    0.7200 c3        1 MOL     -0.119580
    114 C36         5.1680   -1.6730    1.7790 c         1 MOL      0.652597
    115 O17         4.8340   -2.1490    2.8520 o         1 MOL     -0.553013
    116 C37         3.9130   -2.6310   -0.2910 c3        1 MOL      0.348150
    117 C38         3.2540   -3.8990    0.2990 c3        1 MOL     -0.427324
    118 O18         3.1960   -2.3100   -1.4720 oh        1 MOL     -0.615417
    119 H53         2.4240   -1.9630    1.8450 hn        1 MOL      0.166609
    120 H54         4.3020   -0.5610    0.1020 h1        1 MOL      0.096974
    121 H55         4.8750   -3.0170   -0.6140 h1        1 MOL     -0.004122
    122 H56         3.7830   -2.0090   -2.1750 ho        1 MOL      0.408477
    123 H57         3.3160   -4.7380   -0.3880 hc        1 MOL      0.131140
    124 H58         3.6100   -4.0960    1.3080 hc        1 MOL      0.131140
    125 H59         2.1940   -3.6600    0.1880 hc        1 MOL      0.131140
    126 N11         6.4030   -1.3690    1.5810 n         1 MOL     -0.448901
    127 C39         7.5450   -1.5070    2.5390 c3        1 MOL     -0.021973
    128 C40         8.7510   -0.6930    2.2310 c         1 MOL      0.584740
    129 O19         9.3520   -0.0420    3.1080 o         1 MOL     -0.540398
    130 C41         7.8630   -2.9000    2.8850 c3        1 MOL      0.190982
    131 C42         9.0790   -3.1200    3.8010 c3        1 MOL     -0.257881
    132 O20         8.0520   -3.6690    1.7650 oh        1 MOL     -0.612111
    133 H60         6.5780   -1.0690    0.6340 hn        1 MOL      0.220239
    134 H61         7.0950   -1.0920    3.4460 h1        1 MOL      0.126892
    135 H62         6.9620   -3.2740    3.3550 h1        1 MOL      0.066345
    136 H63         8.3030   -4.5270    2.1090 ho        1 MOL      0.410827
    137 H64         9.1100   -4.0790    4.3270 hc        1 MOL      0.072085
    138 H65         9.9720   -3.1640    3.1870 hc        1 MOL      0.072085
    139 H66         9.1140   -2.3620    4.5910 hc        1 MOL      0.072085
    140 N12         8.9290   -0.3980    0.9020 n         1 MOL     -0.486179
    141 C43         9.9000    0.5810    0.3270 c3        1 MOL      0.115824
    142 C44         9.1200    1.4220   -0.6900 c         1 MOL      0.529399
    143 O21         8.4320    0.7990   -1.5410 o         1 MOL     -0.508280
    144 C45        11.0730   -0.1790   -0.3880 c3        1 MOL     -0.354618
    145 C46        12.1850    0.7670   -0.9660 c3        1 MOL      0.400601
    146 C47        13.1510   -0.0340   -1.8480 c3        1 MOL      0.185205
    147 C48        14.4030    0.7440   -2.2340 c3        1 MOL     -0.167899
    148 N13        15.3090    1.1560   -1.1250 n4        1 MOL     -0.203298
    149 H67         8.4080   -1.0440    0.3290 hn        1 MOL      0.311167
    150 H68        10.3710    1.1580    1.1240 h1        1 MOL      0.084953
    151 H69        10.7300   -0.8110   -1.2030 hc        1 MOL      0.097615
    152 H70        11.5430   -0.7970    0.3810 hc        1 MOL      0.097615
    153 H71        12.6650    1.1580   -0.0720 hc        1 MOL     -0.136284
    154 H72        11.7710    1.6130   -1.5130 hc        1 MOL     -0.136284
    155 H73        12.5660   -0.4390   -2.6790 hc        1 MOL     -0.023199
    156 H74        13.5430   -0.8660   -1.2500 hc        1 MOL     -0.023199
    157 H75        14.1320    1.6470   -2.7860 hx        1 MOL      0.123863
    158 H76        14.9300    0.0770   -2.9120 hx        1 MOL      0.123863
    159 H77        15.9170    0.4340   -0.7700 hn        1 MOL      0.268294
    160 H78        15.9550    1.8940   -1.3510 hn        1 MOL      0.268294
    161 H79        14.7950    1.5710   -0.3560 hn        1 MOL      0.268294
    162 N14         9.2630    2.7440   -0.6480 n         1 MOL     -0.595451
    163 C49         8.8800    3.5990   -1.7680 c3        1 MOL      0.391983
    164 C50         7.3470    3.7370   -1.8910 c         1 MOL      0.325643
    165 O22         6.7720    3.3340   -2.8790 o         1 MOL     -0.526851
    166 C51         9.4430    5.0480   -1.7940 c3        1 MOL      0.114797
    167 C52        10.8920    5.1760   -2.2270 c3        1 MOL     -0.194436
    168 C53        11.3900    6.5930   -2.0160 c         1 MOL      0.609871
    169 O23        10.6060    7.5580   -2.2830 o         1 MOL     -0.663339
    170 O24        12.6480    6.7440   -1.7730 o         1 MOL     -0.663339
    171 H80         9.5830    3.2100    0.1910 hn        1 MOL      0.317042
    172 H81         9.2080    3.1890   -2.7260 h1        1 MOL     -0.019481
    173 H82         9.3750    5.4670   -0.7940 hc        1 MOL      0.002382
    174 H83         8.8660    5.6620   -2.4800 hc        1 MOL      0.002382
    175 H84        10.9120    4.8550   -3.2680 hc        1 MOL      0.019267
    176 H85        11.4850    4.4440   -1.6760 hc        1 MOL      0.019267
    177 N15         6.6090    4.1820   -0.8920 n         1 MOL     -0.320575
    178 C54         6.9460    4.9860    0.3290 c3        1 MOL     -0.094701
    179 H86         6.0530    5.1030    0.9440 h1        1 MOL      0.062531
    180 H87         7.7160    4.4700    0.9020 h1        1 MOL      0.062531
    181 H88         7.3110    5.9680    0.0300 h1        1 MOL      0.062531
    182 H89         5.6470    3.8960   -1.0090 hn        1 MOL      0.289486
    183 Ca1        -1.8100   -2.2000   -2.2410 Ca        1 MOL      1.790573
    184 O25        -1.1580   -3.1580   -4.6220 oh        1 MOL     -0.838667
    185 H90        -1.9640   -3.6420   -4.8430 ho        1 MOL      0.412439
    186 H91        -0.4660   -3.6500   -5.0650 ho        1 MOL      0.412439
    187 O26         0.2570   -0.5910   -2.1350 oh        1 MOL     -0.838667
    188 H92         0.6600   -0.0730   -2.8380 ho        1 MOL      0.412439
    189 H93         0.1790    0.0210   -1.4040 ho        1 MOL      0.412439
    190 O27        -2.3810   -0.5030   -4.1820 oh        1 MOL     -0.838667
    191 H94        -3.0550   -0.4740   -4.8680 ho        1 MOL      0.412439
    192 H95        -2.1190    0.4100   -4.0670 ho        1 MOL      0.412439
    193 O28         0.4840   -3.7840   -1.8880 oh        1 MOL     -0.838667
    194 H96         1.0340   -4.5270   -2.1590 ho        1 MOL      0.412439
    195 H97         1.1030   -3.1090   -1.6220 ho        1 MOL      0.412439
@<TRIPOS>BOND
     1    1    2 1   
     2    1    4 1   
     3    1    5 1   
     4    1    6 1   
     5    2    3 2   
     6    2    7 1   
     7    7    8 1   
     8    7   15 1   
     9    8    9 1   
    10    8   11 1   
    11    8   16 1   
    12    9   10 2   
    13    9   19 1   
    14   11   12 1   
    15   11   17 1   
    16   11   18 1   
    17   12   13 1   
    18   12   14 1   
    19   19   20 1   
    20   19   28 1   
    21   20   21 1   
    22   20   23 1   
    23   20   29 1   
    24   21   22 2   
    25   21   41 1   
    26   23   24 1   
    27   23   30 1   
    28   23   31 1   
    29   24   25 1   
    30   24   32 1   
    31   24   33 1   
    32   25   26 1   
    33   25   34 1   
    34   25   35 1   
    35   26   27 1   
    36   26   36 1   
    37   26   37 1   
    38   27   38 1   
    39   27   39 1   
    40   27   40 1   
    41   41   42 1   
    42   41   49 1   
    43   42   43 1   
    44   42   45 1   
    45   42   50 1   
    46   43   44 2   
    47   43   53 1   
    48   45   46 1   
    49   45   51 1   
    50   45   52 1   
    51   46   47 1   
    52   46   48 1   
    53   53   54 1   
    54   53   57 1   
    55   54   55 1   
    56   54   58 1   
    57   54   59 1   
    58   55   56 2   
    59   55   60 1   
    60   60   61 1   
    61   60   68 1   
    62   61   62 1   
    63   61   64 1   
    64   61   69 1   
    65   62   63 2   
    66   62   72 1   
    67   64   65 1   
    68   64   70 1   
    69   64   71 1   
    70   65   66 1   
    71   65   67 1   
    72   72   73 1   
    73   72   76 1   
    74   73   74 1   
    75   73   77 1   
    76   73   78 1   
    77   74   75 2   
    78   74   79 1   
    79   79   80 1   
    80   79   86 1   
    81   80   81 1   
    82   80   83 1   
    83   80   87 1   
    84   81   82 2   
    85   81   93 1   
    86   83   84 1   
    87   83   85 1   
    88   83   88 1   
    89   84   90 1   
    90   84   91 1   
    91   84   92 1   
    92   85   89 1   
    93   93   94 1   
    94   93  101 1   
    95   94   95 1   
    96   94   97 1   
    97   94  102 1   
    98   95   96 2   
    99   95  112 1   
   100   97   98 1   
   101   97   99 1   
   102   97  103 1   
   103   98  100 1   
   104   98  104 1   
   105   98  105 1   
   106   99  106 1   
   107   99  107 1   
   108   99  108 1   
   109  100  109 1   
   110  100  110 1   
   111  100  111 1   
   112  112  113 1   
   113  112  119 1   
   114  113  114 1   
   115  113  116 1   
   116  113  120 1   
   117  114  115 2   
   118  114  126 1   
   119  116  117 1   
   120  116  118 1   
   121  116  121 1   
   122  117  123 1   
   123  117  124 1   
   124  117  125 1   
   125  118  122 1   
   126  126  127 1   
   127  126  133 1   
   128  127  128 1   
   129  127  130 1   
   130  127  134 1   
   131  128  129 2   
   132  128  140 1   
   133  130  131 1   
   134  130  132 1   
   135  130  135 1   
   136  131  137 1   
   137  131  138 1   
   138  131  139 1   
   139  132  136 1   
   140  140  141 1   
   141  140  149 1   
   142  141  142 1   
   143  141  144 1   
   144  141  150 1   
   145  142  143 2   
   146  142  162 1   
   147  144  145 1   
   148  144  151 1   
   149  144  152 1   
   150  145  146 1   
   151  145  153 1   
   152  145  154 1   
   153  146  147 1   
   154  146  155 1   
   155  146  156 1   
   156  147  148 1   
   157  147  157 1   
   158  147  158 1   
   159  148  159 1   
   160  148  160 1   
   161  148  161 1   
   162  162  163 1   
   163  162  171 1   
   164  163  164 1   
   165  163  166 1   
   166  163  172 1   
   167  164  165 2   
   168  164  177 1   
   169  166  167 1   
   170  166  173 1   
   171  166  174 1   
   172  167  168 1   
   173  167  175 1   
   174  167  176 1   
   175  168  169 1   
   176  168  170 1   
   177  177  178 1   
   178  177  182 1   
   179  178  179 1   
   180  178  180 1   
   181  178  181 1   
   182  184  185 1   
   183  184  186 1   
   184  187  188 1   
   185  187  189 1   
   186  190  191 1   
   187  190  192 1   
   188  193  194 1   
   189  193  195 1   
@<TRIPOS>SUBSTRUCTURE
     1 MOL         1 TEMP              0 ****  ****    0 ROOT
