@<TRIPOS>MOLECULE
MOL
  185   180     1     0     0
SMALL
resp


@<TRIPOS>ATOM
      1 C1         -5.3320    0.8040   -4.1610 c3        1 MOL     -0.397291
      2 C2         -6.2400    1.0430   -2.9330 c         1 MOL      0.504652
      3 O1         -5.7070    0.9570   -1.8140 o         1 MOL     -0.380258
      4 H1         -4.5570    0.0820   -3.9030 hc        1 MOL      0.107477
      5 H2         -5.9290    0.4150   -4.9860 hc        1 MOL      0.107477
      6 H3         -4.8680    1.7440   -4.4580 hc        1 MOL      0.107477
      7 N1         -7.5620    1.2960   -3.0680 n         1 MOL     -0.542019
      8 C3         -8.3300    1.8250   -1.9540 c3        1 MOL      0.090823
      9 C4         -8.4590    0.9540   -0.7190 c         1 MOL      0.264483
     10 O2         -8.5800    1.4500    0.3930 o         1 MOL     -0.443912
     11 C5         -7.8360    3.2680   -1.6810 c3        1 MOL     -0.275593
     12 C6         -8.8010    4.0650   -0.8410 c         1 MOL      0.742692
     13 O3         -8.3150    4.8780   -0.0710 o         1 MOL     -0.675799
     14 O4         -9.9640    3.9780   -1.2470 o         1 MOL     -0.675799
     15 H4         -7.9110    1.3810   -4.0140 hn        1 MOL      0.335977
     16 H5         -9.2930    1.9520   -2.4410 h1        1 MOL      0.057335
     17 H6         -7.5250    3.8170   -2.5590 hc        1 MOL      0.120120
     18 H7         -6.9240    3.3650   -1.0940 hc        1 MOL      0.120120
     19 N2         -8.4100   -0.3660   -0.8550 n         1 MOL     -0.145692
     20 C7         -8.4640   -1.3030    0.2420 c3        1 MOL      0.016312
     21 C8         -7.0690   -1.8040    0.6040 c         1 MOL      0.410822
     22 O5         -7.0000   -2.6650    1.5490 o         1 MOL     -0.585656
     23 C9         -9.4460   -2.3840   -0.0540 c3        1 MOL      0.047406
     24 C10       -10.9430   -1.8730   -0.0360 c3        1 MOL      0.116113
     25 C11       -11.8350   -3.0300   -0.3660 c3        1 MOL     -0.093550
     26 C12       -13.2050   -2.4930   -0.1630 c3        1 MOL      0.075796
     27 N3        -14.2100   -3.5650   -0.1190 n4        1 MOL     -0.225643
     28 H8         -8.3570   -0.7460   -1.7920 hn        1 MOL      0.175844
     29 H9         -8.7490   -0.9140    1.2210 h1        1 MOL      0.110237
     30 H10        -9.2630   -3.1360    0.7160 hc        1 MOL     -0.029616
     31 H11        -9.1490   -2.7660   -1.0320 hc        1 MOL     -0.029616
     32 H12       -10.9840   -1.1700   -0.8660 hc        1 MOL     -0.004172
     33 H13       -11.2060   -1.3770    0.9080 hc        1 MOL     -0.004172
     34 H14       -11.6570   -3.8450    0.3260 hc        1 MOL      0.034178
     35 H15       -11.6940   -3.4960   -1.3470 hc        1 MOL      0.034178
     36 H16       -13.3950   -1.7070   -0.8950 hx        1 MOL      0.066133
     37 H17       -13.1530   -1.9750    0.7970 hx        1 MOL      0.066133
     38 H18       -13.9280   -4.1780    0.6430 hn        1 MOL      0.241826
     39 H19       -15.1130   -3.1900    0.1010 hn        1 MOL      0.241826
     40 H20       -14.3510   -4.1480   -0.9240 hn        1 MOL      0.241826
     41 N4         -5.9920   -1.2970    0.0520 n         1 MOL      0.005854
     42 C13        -4.6880   -1.9040    0.2800 c3        1 MOL     -0.387696
     43 C14        -4.0970   -1.5590    1.6900 c         1 MOL      0.630868
     44 O6         -3.8260   -0.3710    1.9040 o         1 MOL     -0.539668
     45 C15        -3.7460   -1.5480   -0.8530 c3        1 MOL     -0.118326
     46 C16        -2.4360   -2.4130   -0.8490 c         1 MOL      0.652261
     47 O7         -2.3150   -3.4930   -0.1560 o         1 MOL     -0.736284
     48 O8         -1.3770   -1.9730   -1.3890 o         1 MOL     -0.736284
     49 H21        -6.1100   -0.5800   -0.6470 hn        1 MOL      0.075594
     50 H22        -4.8560   -2.9760    0.2830 h1        1 MOL      0.087312
     51 H23        -3.6020   -0.4720   -0.9090 hc        1 MOL      0.106540
     52 H24        -4.2280   -1.7080   -1.8080 hc        1 MOL      0.106540
     53 N5         -4.0340   -2.4720    2.5870 n         1 MOL     -0.171767
     54 C17        -3.9500   -2.1400    4.0280 c3        1 MOL     -0.252526
     55 C18        -2.6910   -1.3180    4.5570 c         1 MOL      0.517768
     56 O9         -2.7780   -0.8620    5.6560 o         1 MOL     -0.529726
     57 H25        -4.2010   -3.4030    2.2370 hn        1 MOL      0.234156
     58 H26        -3.9790   -3.1510    4.4270 h1        1 MOL      0.119758
     59 H27        -4.7750   -1.5220    4.3620 h1        1 MOL      0.119758
     60 N6         -1.6410   -1.2380    3.7280 n         1 MOL     -0.162820
     61 C19        -0.4380   -0.4090    4.0680 c3        1 MOL     -0.015105
     62 C20        -0.5440    1.0880    3.5790 c         1 MOL      0.550970
     63 O10         0.3680    1.8260    3.9100 o         1 MOL     -0.562324
     64 C21         0.8140   -1.2240    3.6070 c3        1 MOL     -0.218860
     65 C22         0.9010   -1.3460    2.0610 c         1 MOL      0.472651
     66 N7          1.8600   -0.6420    1.5220 n         1 MOL     -0.675858
     67 O11         0.1280   -2.0690    1.4320 o         1 MOL     -0.460160
     68 H28        -1.6370   -1.8580    2.9330 hn        1 MOL      0.036969
     69 H29        -0.4360   -0.3480    5.1540 h1        1 MOL      0.094756
     70 H30         0.7540   -2.2610    3.9530 hc        1 MOL      0.080611
     71 H31         1.6830   -0.7000    3.9980 hc        1 MOL      0.080611
     72 H32         2.5780   -0.2780    2.1180 hn        1 MOL      0.374254
     73 H33         1.9600   -0.5820    0.5200 hn        1 MOL      0.374254
     74 N8         -1.4850    1.5380    2.7700 n         1 MOL     -0.257844
     75 C23        -1.7590    2.9310    2.4810 c3        1 MOL     -0.228219
     76 C24        -0.6390    3.6240    1.6590 c         1 MOL      0.671590
     77 O12        -0.3960    4.8120    1.9300 o         1 MOL     -0.574781
     78 H34        -2.3170    0.9730    2.6380 hn        1 MOL      0.221632
     79 H35        -2.0030    3.4520    3.4050 h1        1 MOL      0.147648
     80 H36        -2.6450    3.0320    1.8430 h1        1 MOL      0.147648
     81 N9          0.0070    2.9960    0.6480 n         1 MOL     -0.537342
     82 C25         0.9130    3.6470   -0.2870 c3        1 MOL      0.212131
     83 C26         2.1390    2.6590   -0.5780 c         1 MOL      0.500293
     84 O13         2.0350    1.4360   -0.5570 o         1 MOL     -0.460321
     85 C27         0.1480    3.9100   -1.5880 c3        1 MOL     -0.071738
     86 C28        -1.2430    4.4900   -1.4510 ca        1 MOL     -0.052529
     87 C29        -2.3570    3.6090   -1.4730 ca        1 MOL     -0.144572
     88 C30        -1.4700    5.8650   -1.3600 ca        1 MOL     -0.144572
     89 C31        -3.5880    4.1580   -1.3550 ca        1 MOL     -0.107531
     90 C32        -2.6680    6.4300   -1.1380 ca        1 MOL     -0.107531
     91 C33        -3.7240    5.5670   -1.1040 ca        1 MOL      0.170933
     92 O14        -4.9950    6.0540   -0.7240 oh        1 MOL     -0.451897
     93 H37        -0.0470    1.9940    0.5590 hn        1 MOL      0.265957
     94 H38         1.1950    4.6130    0.1250 h1        1 MOL      0.036891
     95 H39         0.0430    2.9280   -2.0280 hc        1 MOL      0.044890
     96 H40         0.7830    4.5070   -2.2390 hc        1 MOL      0.044890
     97 H41        -2.2980    2.5540   -1.6560 ha        1 MOL      0.114327
     98 H42        -0.5950    6.4810   -1.5190 ha        1 MOL      0.114327
     99 H43        -4.3950    3.4400   -1.2710 ha        1 MOL      0.087550
    100 H44        -2.7770    7.4970   -1.2640 ha        1 MOL      0.087550
    101 H45        -4.9770    6.9960   -0.5540 ho        1 MOL      0.388246
    102 N10         3.2310    3.2940   -0.9250 n         1 MOL     -0.618203
    103 C34         4.5200    2.5890   -1.2270 c3        1 MOL     -0.034208
    104 C35         5.2750    2.2470    0.0770 c         1 MOL      0.486120
    105 O15         5.3960    1.0940    0.4830 o         1 MOL     -0.527777
    106 C36         5.3300    3.4260   -2.2580 c3        1 MOL      0.047116
    107 C37         4.5840    3.9880   -3.4450 c3        1 MOL      0.050186
    108 C38         6.5350    2.5580   -2.7810 c3        1 MOL     -0.171118
    109 C39         3.8100    2.9140   -4.3330 c3        1 MOL     -0.197112
    110 H46         3.2620    4.2920   -0.8280 hn        1 MOL      0.314922
    111 H47         4.2600    1.6360   -1.6980 h1        1 MOL      0.105773
    112 H48         5.8130    4.2130   -1.6680 hc        1 MOL     -0.005172
    113 H49         5.1940    4.6120   -4.0910 hc        1 MOL      0.002821
    114 H50         3.8630    4.7530   -3.1500 hc        1 MOL      0.002821
    115 H51         7.2810    3.2180   -3.2120 hc        1 MOL      0.050657
    116 H52         7.1510    2.0020   -2.0740 hc        1 MOL      0.050657
    117 H53         6.2280    1.8640   -3.5680 hc        1 MOL      0.050657
    118 H54         3.2360    3.5110   -5.0470 hc        1 MOL      0.066894
    119 H55         4.4050    2.1820   -4.8680 hc        1 MOL      0.066894
    120 H56         3.0570    2.3970   -3.7410 hc        1 MOL      0.066894
    121 N11         5.6810    3.2650    0.8130 n         1 MOL     -0.113526
    122 C40         6.4760    3.0960    2.0710 c3        1 MOL     -0.345466
    123 C41         7.9010    2.4450    1.9320 c         1 MOL      0.529073
    124 O16         8.5470    2.1070    2.9010 o         1 MOL     -0.485656
    125 C42         6.6480    4.4610    2.7250 c3        1 MOL      0.069257
    126 O17         7.0800    5.3950    1.6730 oh        1 MOL     -0.620433
    127 H57         5.6000    4.2250    0.5160 hn        1 MOL      0.238552
    128 H58         5.7950    2.5100    2.6960 h1        1 MOL      0.189679
    129 H59         7.3700    4.4300    3.5500 h1        1 MOL      0.096649
    130 H60         5.6610    4.7200    3.1140 h1        1 MOL      0.096649
    131 H61         7.4560    6.2110    2.0260 ho        1 MOL      0.422079
    132 N12         8.4610    2.4710    0.7050 n         1 MOL     -0.198725
    133 C43         9.7110    1.7840    0.3360 c3        1 MOL      0.104897
    134 C44         9.6910    0.3160    0.7370 c         1 MOL      0.447805
    135 O18        10.4920   -0.2250    1.4850 o         1 MOL     -0.489635
    136 C45        10.9260    2.5960    0.8600 c3        1 MOL     -0.342558
    137 H62         7.9540    3.1070    0.1070 hn        1 MOL      0.172612
    138 H63         9.7610    1.8850   -0.7550 h1        1 MOL      0.077894
    139 H64        11.8500    2.1180    0.5290 hc        1 MOL      0.099123
    140 H65        10.9900    3.5850    0.3970 hc        1 MOL      0.099123
    141 H66        10.9650    2.7190    1.9470 hc        1 MOL      0.099123
    142 N13         8.6250   -0.4170    0.3260 n         1 MOL     -0.429585
    143 C46         8.1600   -1.7490    0.7350 c3        1 MOL      0.361791
    144 C47         7.3440   -2.3460   -0.4120 c         1 MOL      0.441615
    145 O19         6.8520   -1.6980   -1.4030 o         1 MOL     -0.470721
    146 C48         7.4130   -1.5700    2.0370 c3        1 MOL     -0.261703
    147 H67         8.1050   -0.0010   -0.4300 hn        1 MOL      0.127900
    148 H68         9.0170   -2.3850    0.9720 h1        1 MOL     -0.016534
    149 H69         6.8260   -2.4760    2.2200 hc        1 MOL      0.076026
    150 H70         8.1580   -1.5260    2.8300 hc        1 MOL      0.076026
    151 H71         6.7150   -0.7300    1.9970 hc        1 MOL      0.076026
    152 N14         7.2330   -3.6700   -0.3750 n         1 MOL     -0.381877
    153 C49         6.7710   -4.4940   -1.5650 c3        1 MOL     -0.057925
    154 C50         7.4160   -4.1450   -2.9750 c         1 MOL      0.377871
    155 O20         6.8330   -4.3030   -4.0240 o         1 MOL     -0.479206
    156 C51         5.2430   -4.5350   -1.5730 c3        1 MOL      0.150948
    157 C52         4.6860   -5.0940   -0.2090 c3        1 MOL     -0.053121
    158 C53         3.1440   -5.1460   -0.0660 c         1 MOL      0.625828
    159 O21         2.4650   -5.4410   -1.0460 o         1 MOL     -0.717761
    160 O22         2.5970   -4.6370    0.9230 o         1 MOL     -0.717761
    161 H72         7.6060   -4.0860    0.4650 hn        1 MOL      0.267512
    162 H73         7.0760   -5.5160   -1.3480 h1        1 MOL      0.084792
    163 H74         4.8770   -5.0920   -2.4370 hc        1 MOL     -0.001813
    164 H75         4.7940   -3.5430   -1.6340 hc        1 MOL     -0.001813
    165 H76         5.1130   -4.4620    0.5760 hc        1 MOL     -0.017760
    166 H77         5.1330   -6.0350    0.1110 hc        1 MOL     -0.017760
    167 N15         8.6300   -3.6240   -3.0480 n         1 MOL     -0.229666
    168 C54         9.2080   -3.0120   -4.2420 c3        1 MOL     -0.013184
    169 H78        10.1660   -3.4820   -4.4630 h1        1 MOL      0.055723
    170 H79         8.5330   -3.1510   -5.0860 h1        1 MOL      0.055723
    171 H80         9.3580   -1.9460   -4.0680 h1        1 MOL      0.055723
    172 H81         8.9790   -3.5030   -2.1060 hn        1 MOL      0.151077
    173 Ca1         0.2210   -4.0780   -0.2260 Ca        1 MOL      1.745247
    174 O23        -0.6510   -6.5480   -1.0000 oh        1 MOL     -0.852436
    175 H82        -0.4870   -6.8710   -1.8870 ho        1 MOL      0.424073
    176 H83        -1.3240   -7.1260   -0.6470 ho        1 MOL      0.424073
    177 O24        -0.2530   -5.3180    2.0120 oh        1 MOL     -0.852436
    178 H84        -1.0560   -5.6330    2.4320 ho        1 MOL      0.424073
    179 H85         0.3800   -5.2690    2.7210 ho        1 MOL      0.424073
    180 O25         1.8270   -2.1720   -1.2140 oh        1 MOL     -0.852436
    181 H86         1.5880   -1.6960   -2.0120 ho        1 MOL      0.424073
    182 H87         2.7240   -1.9010   -1.0350 ho        1 MOL      0.424073
    183 O26         0.2080   -4.2980   -2.8980 oh        1 MOL     -0.852436
    184 H88        -0.3920   -3.9930   -3.5760 ho        1 MOL      0.424073
    185 H89         1.0560   -4.3470   -3.3280 ho        1 MOL      0.424073
@<TRIPOS>BOND
     1    1    2 1   
     2    1    4 1   
     3    1    5 1   
     4    1    6 1   
     5    2    3 2   
     6    2    7 1   
     7    7    8 1   
     8    7   15 1   
     9    8    9 1   
    10    8   11 1   
    11    8   16 1   
    12    9   10 2   
    13    9   19 1   
    14   11   12 1   
    15   11   17 1   
    16   11   18 1   
    17   12   13 1   
    18   12   14 1   
    19   19   20 1   
    20   19   28 1   
    21   20   21 1   
    22   20   23 1   
    23   20   29 1   
    24   21   22 2   
    25   21   41 1   
    26   23   24 1   
    27   23   30 1   
    28   23   31 1   
    29   24   25 1   
    30   24   32 1   
    31   24   33 1   
    32   25   26 1   
    33   25   34 1   
    34   25   35 1   
    35   26   27 1   
    36   26   36 1   
    37   26   37 1   
    38   27   38 1   
    39   27   39 1   
    40   27   40 1   
    41   41   42 1   
    42   41   49 1   
    43   42   43 1   
    44   42   45 1   
    45   42   50 1   
    46   43   44 2   
    47   43   53 1   
    48   45   46 1   
    49   45   51 1   
    50   45   52 1   
    51   46   47 1   
    52   46   48 1   
    53   53   54 1   
    54   53   57 1   
    55   54   55 1   
    56   54   58 1   
    57   54   59 1   
    58   55   56 2   
    59   55   60 1   
    60   60   61 1   
    61   60   68 1   
    62   61   62 1   
    63   61   64 1   
    64   61   69 1   
    65   62   63 2   
    66   62   74 1   
    67   64   65 1   
    68   64   70 1   
    69   64   71 1   
    70   65   66 1   
    71   65   67 2   
    72   66   72 1   
    73   66   73 1   
    74   74   75 1   
    75   74   78 1   
    76   75   76 1   
    77   75   79 1   
    78   75   80 1   
    79   76   77 2   
    80   76   81 1   
    81   81   82 1   
    82   81   93 1   
    83   82   83 1   
    84   82   85 1   
    85   82   94 1   
    86   83   84 2   
    87   83  102 1   
    88   85   86 1   
    89   85   95 1   
    90   85   96 1   
    91   86   87 ar  
    92   86   88 ar  
    93   87   89 ar  
    94   87   97 1   
    95   88   90 ar  
    96   88   98 1   
    97   89   91 ar  
    98   89   99 1   
    99   90   91 ar  
   100   90  100 1   
   101   91   92 1   
   102   92  101 1   
   103  102  103 1   
   104  102  110 1   
   105  103  104 1   
   106  103  106 1   
   107  103  111 1   
   108  104  105 2   
   109  104  121 1   
   110  106  107 1   
   111  106  108 1   
   112  106  112 1   
   113  107  109 1   
   114  107  113 1   
   115  107  114 1   
   116  108  115 1   
   117  108  116 1   
   118  108  117 1   
   119  109  118 1   
   120  109  119 1   
   121  109  120 1   
   122  121  122 1   
   123  121  127 1   
   124  122  123 1   
   125  122  125 1   
   126  122  128 1   
   127  123  124 2   
   128  123  132 1   
   129  125  126 1   
   130  125  129 1   
   131  125  130 1   
   132  126  131 1   
   133  132  133 1   
   134  132  137 1   
   135  133  134 1   
   136  133  136 1   
   137  133  138 1   
   138  134  135 2   
   139  134  142 1   
   140  136  139 1   
   141  136  140 1   
   142  136  141 1   
   143  142  143 1   
   144  142  147 1   
   145  143  144 1   
   146  143  146 1   
   147  143  148 1   
   148  144  145 2   
   149  144  152 1   
   150  146  149 1   
   151  146  150 1   
   152  146  151 1   
   153  152  153 1   
   154  152  161 1   
   155  153  154 1   
   156  153  156 1   
   157  153  162 1   
   158  154  155 2   
   159  154  167 1   
   160  156  157 1   
   161  156  163 1   
   162  156  164 1   
   163  157  158 1   
   164  157  165 1   
   165  157  166 1   
   166  158  159 1   
   167  158  160 1   
   168  167  168 1   
   169  167  172 1   
   170  168  169 1   
   171  168  170 1   
   172  168  171 1   
   173  174  175 1   
   174  174  176 1   
   175  177  178 1   
   176  177  179 1   
   177  180  181 1   
   178  180  182 1   
   179  183  184 1   
   180  183  185 1   
@<TRIPOS>SUBSTRUCTURE
     1 MOL         1 TEMP              0 ****  ****    0 ROOT
