@<TRIPOS>MOLECULE
MOL
  192   187     1     0     0
SMALL
resp


@<TRIPOS>ATOM
      1 C1         -8.9770    0.9790   -2.2330 c3        1 MOL     -0.362780
      2 C2         -8.0060    0.2770   -1.3380 c         1 MOL      0.789905
      3 O1         -6.8490    0.1050   -1.7000 o         1 MOL     -0.653099
      4 H1         -8.4490    1.3790   -3.0990 hc        1 MOL      0.085669
      5 H2         -9.7400    0.2750   -2.5660 hc        1 MOL      0.085669
      6 H3         -9.4490    1.7960   -1.6880 hc        1 MOL      0.085669
      7 N1         -8.4760   -0.1320   -0.1460 n         1 MOL     -0.553225
      8 C3         -7.5750   -0.5170    0.9800 c3        1 MOL     -0.047175
      9 C4         -7.1840   -2.0080    0.9060 c         1 MOL      0.500677
     10 O2         -7.3800   -2.7120    1.8790 o         1 MOL     -0.451917
     11 C5         -8.0370   -0.1220    2.3310 c3        1 MOL     -0.088454
     12 C6         -9.5080   -0.1920    2.6870 c         1 MOL      0.700347
     13 O3        -10.2690   -0.9160    1.9960 o         1 MOL     -0.664395
     14 O4         -9.9170    0.3810    3.6980 o         1 MOL     -0.664395
     15 H4         -9.4430    0.1030    0.0450 hn        1 MOL      0.274868
     16 H5         -6.7050    0.1070    0.7890 h1        1 MOL      0.154610
     17 H6         -7.6990    0.9020    2.5280 hc        1 MOL      0.038149
     18 H7         -7.4550   -0.6720    3.0680 hc        1 MOL      0.038149
     19 N2         -6.5560   -2.4400   -0.2170 n         1 MOL     -0.326553
     20 C7         -5.9420   -3.7980   -0.4130 c3        1 MOL      0.065306
     21 C8         -4.6140   -3.8710    0.2610 c         1 MOL      0.473401
     22 O5         -4.4770   -4.8100    0.9960 o         1 MOL     -0.568329
     23 C9         -5.7610   -4.1190   -1.9020 c3        1 MOL     -0.037300
     24 C10        -6.9730   -3.6700   -2.7070 c3        1 MOL      0.110953
     25 C11        -8.2660   -4.4400   -2.3830 c3        1 MOL     -0.027109
     26 C12        -9.4570   -4.0250   -3.2210 c3        1 MOL     -0.148880
     27 N3         -9.3500   -4.6340   -4.5760 n4        1 MOL     -0.121575
     28 H8         -6.3630   -1.7690   -0.9450 hn        1 MOL      0.156581
     29 H9         -6.5770   -4.5760    0.0160 h1        1 MOL      0.064256
     30 H10        -5.6530   -5.1480   -2.2090 hc        1 MOL      0.002354
     31 H11        -4.8660   -3.6250   -2.2790 hc        1 MOL      0.002354
     32 H12        -6.7640   -3.9370   -3.7410 hc        1 MOL     -0.040607
     33 H13        -7.1780   -2.6000   -2.6550 hc        1 MOL     -0.040607
     34 H14        -8.4950   -4.2760   -1.3320 hc        1 MOL      0.051333
     35 H15        -8.1040   -5.5160   -2.4070 hc        1 MOL      0.051333
     36 H16        -9.4110   -2.9370   -3.1200 hx        1 MOL      0.128677
     37 H17       -10.2870   -4.5120   -2.7080 hx        1 MOL      0.128677
     38 H18        -8.5350   -4.3390   -5.0930 hn        1 MOL      0.225631
     39 H19        -9.1990   -5.6300   -4.4900 hn        1 MOL      0.225631
     40 H20       -10.1410   -4.4020   -5.1540 hn        1 MOL      0.225631
     41 N4         -3.6980   -2.9670    0.1920 n         1 MOL     -0.233322
     42 C13        -3.5680   -1.8910   -0.8220 c3        1 MOL     -0.017862
     43 C14        -3.5440   -0.5150   -0.1690 c         1 MOL      0.093041
     44 O6         -3.6260   -0.4540    1.0460 o         1 MOL     -0.379805
     45 C15        -2.2350   -2.1880   -1.6380 c3        1 MOL     -0.530513
     46 C16        -0.9750   -2.2660   -0.7350 c         1 MOL      0.875676
     47 O7         -0.7790   -1.4540    0.1950 o         1 MOL     -0.670235
     48 O8         -0.1720   -3.1690   -1.0080 o         1 MOL     -0.670235
     49 H21        -2.9430   -3.2420    0.8000 hn        1 MOL      0.301098
     50 H22        -4.3700   -1.8180   -1.5570 h1        1 MOL      0.182609
     51 H23        -2.1060   -1.3790   -2.3550 hc        1 MOL      0.138016
     52 H24        -2.3950   -3.1170   -2.1990 hc        1 MOL      0.138016
     53 N5         -3.4430    0.5310   -0.9380 n         1 MOL     -0.125868
     54 C17        -3.7330    1.9560   -0.6700 c3        1 MOL     -0.284892
     55 C18        -2.7380    2.7010    0.2070 c         1 MOL      0.816465
     56 O9         -1.6130    2.1040    0.5100 o         1 MOL     -0.670870
     57 H25        -3.1140    0.3820   -1.8770 hn        1 MOL      0.215953
     58 H26        -4.6890    1.8370   -0.1590 h1        1 MOL      0.104482
     59 H27        -3.8080    2.4270   -1.6440 h1        1 MOL      0.104482
     60 N6         -3.1450    3.8840    0.6780 n         1 MOL     -0.479198
     61 C19        -2.3250    4.7190    1.5770 c3        1 MOL      0.345746
     62 C20        -2.5760    6.2260    1.4180 c         1 MOL      0.398701
     63 O10        -3.6940    6.6770    1.0730 o         1 MOL     -0.527597
     64 C21        -2.4170    4.2540    3.0540 c3        1 MOL     -0.340762
     65 C22        -1.5700    3.0790    3.4440 c         1 MOL      0.643085
     66 O11        -0.4070    2.9150    2.8840 o         1 MOL     -0.640972
     67 O12        -2.0290    2.2360    4.2380 o         1 MOL     -0.640972
     68 H28        -3.9890    4.3170    0.3330 hn        1 MOL      0.261051
     69 H29        -1.3110    4.4440    1.3040 h1        1 MOL     -0.030244
     70 H30        -3.4440    3.9980    3.2710 hc        1 MOL      0.099151
     71 H31        -2.0580    5.1060    3.6280 hc        1 MOL      0.099151
     72 N7         -1.6070    7.1070    1.5670 n         1 MOL     -0.406199
     73 C23        -0.1540    6.9080    1.7610 c3        1 MOL     -0.086245
     74 C24         0.6510    6.3230    0.5460 c         1 MOL      0.644392
     75 O13         0.1480    6.4590   -0.5650 o         1 MOL     -0.530906
     76 H32        -1.7980    8.0550    1.3030 hn        1 MOL      0.322533
     77 H33         0.0680    6.4140    2.7070 h1        1 MOL      0.075694
     78 H34         0.2790    7.9090    1.8130 h1        1 MOL      0.075694
     79 N8          1.7300    5.5940    0.8160 n         1 MOL     -0.637386
     80 C25         2.6290    4.9420   -0.1250 c3        1 MOL      0.243627
     81 C26         2.0310    3.5860   -0.6100 c         1 MOL      0.638107
     82 O14         1.3910    2.9250    0.1710 o         1 MOL     -0.655646
     83 C27         4.0880    4.8300    0.4460 c3        1 MOL      0.399322
     84 C28         4.5580    6.1420    1.0790 c3        1 MOL     -0.318708
     85 O15         4.8460    4.5470   -0.6300 oh        1 MOL     -0.748352
     86 H35         2.0010    5.4310    1.7810 hn        1 MOL      0.279719
     87 H36         2.6880    5.5490   -1.0220 h1        1 MOL      0.039251
     88 H37         4.1850    4.0100    1.1600 h1        1 MOL     -0.005769
     89 H38         5.7110    4.2880   -0.3020 ho        1 MOL      0.443549
     90 H39         4.8940    6.9090    0.3790 hc        1 MOL      0.082078
     91 H40         3.8050    6.7460    1.5890 hc        1 MOL      0.082078
     92 H41         5.3790    5.9260    1.7560 hc        1 MOL      0.082078
     93 N9          2.0440    3.3200   -1.9460 n         1 MOL     -0.631377
     94 C29         1.2390    2.4250   -2.7310 c3        1 MOL     -0.041768
     95 C30         1.5650    0.9530   -2.3160 c         1 MOL      0.701963
     96 O16         1.1980    0.4970   -1.1920 o         1 MOL     -0.720594
     97 C31        -0.2140    2.7330   -2.6960 c3        1 MOL      0.007809
     98 C32        -0.5040    4.1200   -3.3470 c3        1 MOL      0.148590
     99 C33        -1.1130    1.6140   -3.3760 c3        1 MOL     -0.650036
    100 C34        -1.8450    4.6700   -2.8550 c3        1 MOL     -0.176901
    101 H42         2.6440    3.9400   -2.4590 hn        1 MOL      0.343348
    102 H43         1.5250    2.5330   -3.7700 h1        1 MOL      0.079140
    103 H44        -0.5580    2.8250   -1.6730 hc        1 MOL      0.219648
    104 H45        -0.5720    3.9180   -4.4180 hc        1 MOL     -0.027271
    105 H46         0.3320    4.8050   -3.2180 hc        1 MOL     -0.027271
    106 H47        -2.1650    1.8590   -3.4320 hc        1 MOL      0.169291
    107 H48        -0.8560    1.6250   -4.4330 hc        1 MOL      0.169291
    108 H49        -1.1360    0.6630   -2.8480 hc        1 MOL      0.169291
    109 H50        -1.7220    4.7930   -1.7700 hc        1 MOL      0.038586
    110 H51        -2.0330    5.6160   -3.3560 hc        1 MOL      0.038586
    111 H52        -2.7280    4.0670   -3.0430 hc        1 MOL      0.038586
    112 N10         2.3070    0.2680   -3.1160 n         1 MOL     -0.377048
    113 C35         2.8070   -1.1190   -2.8860 c3        1 MOL      0.054641
    114 C36         4.2540   -1.2810   -3.0070 c         1 MOL      0.293510
    115 O17         4.7600   -2.3710   -3.2780 o         1 MOL     -0.535852
    116 C37         1.9940   -2.0490   -3.7840 c3        1 MOL      0.463169
    117 C38         2.0120   -1.7570   -5.3440 c3        1 MOL     -0.444504
    118 O18         0.6470   -2.0310   -3.3380 oh        1 MOL     -0.599298
    119 H53         2.3760    0.6650   -4.0330 hn        1 MOL      0.209833
    120 H54         2.5920   -1.4020   -1.8550 h1        1 MOL      0.067852
    121 H55         2.4320   -3.0390   -3.6480 h1        1 MOL     -0.015851
    122 H56         0.6510   -2.5300   -2.5210 ho        1 MOL      0.329404
    123 H57         1.2490   -1.0560   -5.6760 hc        1 MOL      0.110670
    124 H58         3.0130   -1.4170   -5.6440 hc        1 MOL      0.110670
    125 H59         1.7640   -2.6980   -5.8330 hc        1 MOL      0.110670
    126 N11         4.9870   -0.2340   -2.6930 n         1 MOL     -0.094793
    127 C39         6.4720   -0.2430   -2.7990 c3        1 MOL      0.046066
    128 C40         7.0310   -0.8980   -1.5120 c         1 MOL      0.467761
    129 O19         7.5860   -0.1950   -0.7060 o         1 MOL     -0.444596
    130 C41         6.8690    1.2660   -3.0570 c3        1 MOL      0.190685
    131 C42         6.2090    1.9450   -4.3040 c3        1 MOL     -0.203262
    132 O20         6.4730    2.1470   -2.0200 oh        1 MOL     -0.647512
    133 H60         4.5280    0.6090   -2.3910 hn        1 MOL      0.199666
    134 H61         6.7970   -0.7820   -3.6880 h1        1 MOL      0.068736
    135 H62         7.9420    1.2040   -3.2270 h1        1 MOL      0.030297
    136 H63         6.5700    3.0250   -2.3960 ho        1 MOL      0.437972
    137 H64         5.1750    2.1730   -4.0270 hc        1 MOL      0.048339
    138 H65         6.7420    2.8560   -4.5550 hc        1 MOL      0.048339
    139 H66         6.1370    1.2380   -5.1260 hc        1 MOL      0.048339
    140 N12         6.8030   -2.2400   -1.3000 n         1 MOL     -0.697258
    141 C43         6.5520   -2.9480   -0.0560 c3        1 MOL      0.478468
    142 C44         5.2410   -2.4390    0.5490 c         1 MOL      0.375562
    143 O21         4.6750   -1.4660    0.0740 o         1 MOL     -0.395124
    144 C45         7.7240   -2.6240    0.8970 c3        1 MOL     -0.566109
    145 C46         9.1050   -3.0050    0.3260 c3        1 MOL      0.008960
    146 C47        10.0960   -3.3650    1.3610 c3        1 MOL      0.079881
    147 C48        11.3950   -3.7880    0.7490 c3        1 MOL     -0.065194
    148 N13        12.2330   -2.6470    0.3070 n4        1 MOL     -0.095301
    149 H67         6.5100   -2.7240   -2.1350 hn        1 MOL      0.331236
    150 H68         6.5370   -4.0380   -0.1260 h1        1 MOL      0.011100
    151 H69         7.7370   -3.2030    1.8240 hc        1 MOL      0.175846
    152 H70         7.7320   -1.5570    1.1480 hc        1 MOL      0.175846
    153 H71         9.4050   -2.0430   -0.0770 hc        1 MOL      0.042128
    154 H72         9.0250   -3.7130   -0.5080 hc        1 MOL      0.042128
    155 H73         9.6570   -4.1040    2.0440 hc        1 MOL      0.026903
    156 H74        10.2060   -2.5420    2.0610 hc        1 MOL      0.026903
    157 H75        11.2690   -4.4750   -0.0890 hx        1 MOL      0.074866
    158 H76        11.9790   -4.3230    1.5020 hx        1 MOL      0.074866
    159 H77        13.1580   -2.9850    0.0810 hn        1 MOL      0.193814
    160 H78        11.8460   -2.3110   -0.5700 hn        1 MOL      0.193814
    161 H79        12.2270   -1.8550    0.9300 hn        1 MOL      0.193814
    162 N14         4.7770   -3.0490    1.6230 n         1 MOL     -0.648597
    163 C49         3.6370   -2.6460    2.3920 c3        1 MOL      0.584111
    164 C50         2.3050   -2.5820    1.6790 c         1 MOL      0.117696
    165 O22         1.5240   -1.7340    2.0200 o         1 MOL     -0.450069
    166 C51         3.5120   -3.4760    3.6790 c3        1 MOL     -0.250750
    167 C52         2.4680   -3.0500    4.6820 c3        1 MOL     -0.128185
    168 C53         2.5560   -3.8610    5.9750 c         1 MOL      0.704641
    169 O23         3.3440   -3.4710    6.8740 o         1 MOL     -0.635818
    170 O24         1.6730   -4.7370    6.2170 o         1 MOL     -0.635818
    171 H80         5.3410   -3.7900    2.0130 hn        1 MOL      0.308375
    172 H81         3.8850   -1.6480    2.7730 h1        1 MOL     -0.025100
    173 H82         4.4930   -3.4770    4.1490 hc        1 MOL      0.031678
    174 H83         3.4810   -4.5220    3.3670 hc        1 MOL      0.031678
    175 H84         1.4490   -3.1810    4.3000 hc        1 MOL      0.059719
    176 H85         2.5770   -1.9870    4.8850 hc        1 MOL      0.059719
    177 N15         1.9630   -3.3910    0.6910 n         1 MOL     -0.074052
    178 C54         2.4650   -4.7930    0.4640 c3        1 MOL     -0.081611
    179 H86         2.1180   -5.4370    1.2720 h1        1 MOL      0.052728
    180 H87         2.0850   -5.1660   -0.4870 h1        1 MOL      0.052728
    181 H88         3.5550   -4.7910    0.4450 h1        1 MOL      0.052728
    182 H89         1.1560   -3.1560    0.1240 hn        1 MOL      0.209414
    183 Ca1         0.3900    0.7090    1.3610 Ca        1 MOL      1.880306
    184 O25        -0.6770   -0.3020    3.5680 oh        1 MOL     -0.908844
    185 H90        -0.5440   -0.8360    4.3510 ho        1 MOL      0.423222
    186 H91        -1.2310    0.4170    3.8510 ho        1 MOL      0.423222
    187 O26         3.0820    0.7400    0.9660 oh        1 MOL     -0.908844
    188 H92         3.5470    1.4650    0.5680 ho        1 MOL      0.423222
    189 H93         3.6170   -0.0280    0.7600 ho        1 MOL      0.423222
    190 O27         1.6210    1.0830    3.7840 oh        1 MOL     -0.908844
    191 H94         1.4570    1.7150    4.4690 ho        1 MOL      0.423222
    192 H95         2.2170    0.4520    4.1730 ho        1 MOL      0.423222
@<TRIPOS>BOND
     1    1    2 1   
     2    1    4 1   
     3    1    5 1   
     4    1    6 1   
     5    2    3 2   
     6    2    7 1   
     7    7    8 1   
     8    7   15 1   
     9    8    9 1   
    10    8   11 1   
    11    8   16 1   
    12    9   10 2   
    13    9   19 1   
    14   11   12 1   
    15   11   17 1   
    16   11   18 1   
    17   12   13 1   
    18   12   14 1   
    19   19   20 1   
    20   19   28 1   
    21   20   21 1   
    22   20   23 1   
    23   20   29 1   
    24   21   22 2   
    25   21   41 1   
    26   23   24 1   
    27   23   30 1   
    28   23   31 1   
    29   24   25 1   
    30   24   32 1   
    31   24   33 1   
    32   25   26 1   
    33   25   34 1   
    34   25   35 1   
    35   26   27 1   
    36   26   36 1   
    37   26   37 1   
    38   27   38 1   
    39   27   39 1   
    40   27   40 1   
    41   41   42 1   
    42   41   49 1   
    43   42   43 1   
    44   42   45 1   
    45   42   50 1   
    46   43   44 2   
    47   43   53 1   
    48   45   46 1   
    49   45   51 1   
    50   45   52 1   
    51   46   47 1   
    52   46   48 1   
    53   53   54 1   
    54   53   57 1   
    55   54   55 1   
    56   54   58 1   
    57   54   59 1   
    58   55   56 2   
    59   55   60 1   
    60   60   61 1   
    61   60   68 1   
    62   61   62 1   
    63   61   64 1   
    64   61   69 1   
    65   62   63 2   
    66   62   72 1   
    67   64   65 1   
    68   64   70 1   
    69   64   71 1   
    70   65   66 1   
    71   65   67 1   
    72   72   73 1   
    73   72   76 1   
    74   73   74 1   
    75   73   77 1   
    76   73   78 1   
    77   74   75 2   
    78   74   79 1   
    79   79   80 1   
    80   79   86 1   
    81   80   81 1   
    82   80   83 1   
    83   80   87 1   
    84   81   82 2   
    85   81   93 1   
    86   83   84 1   
    87   83   85 1   
    88   83   88 1   
    89   84   90 1   
    90   84   91 1   
    91   84   92 1   
    92   85   89 1   
    93   93   94 1   
    94   93  101 1   
    95   94   95 1   
    96   94   97 1   
    97   94  102 1   
    98   95   96 2   
    99   95  112 1   
   100   97   98 1   
   101   97   99 1   
   102   97  103 1   
   103   98  100 1   
   104   98  104 1   
   105   98  105 1   
   106   99  106 1   
   107   99  107 1   
   108   99  108 1   
   109  100  109 1   
   110  100  110 1   
   111  100  111 1   
   112  112  113 1   
   113  112  119 1   
   114  113  114 1   
   115  113  116 1   
   116  113  120 1   
   117  114  115 2   
   118  114  126 1   
   119  116  117 1   
   120  116  118 1   
   121  116  121 1   
   122  117  123 1   
   123  117  124 1   
   124  117  125 1   
   125  118  122 1   
   126  126  127 1   
   127  126  133 1   
   128  127  128 1   
   129  127  130 1   
   130  127  134 1   
   131  128  129 2   
   132  128  140 1   
   133  130  131 1   
   134  130  132 1   
   135  130  135 1   
   136  131  137 1   
   137  131  138 1   
   138  131  139 1   
   139  132  136 1   
   140  140  141 1   
   141  140  149 1   
   142  141  142 1   
   143  141  144 1   
   144  141  150 1   
   145  142  143 2   
   146  142  162 1   
   147  144  145 1   
   148  144  151 1   
   149  144  152 1   
   150  145  146 1   
   151  145  153 1   
   152  145  154 1   
   153  146  147 1   
   154  146  155 1   
   155  146  156 1   
   156  147  148 1   
   157  147  157 1   
   158  147  158 1   
   159  148  159 1   
   160  148  160 1   
   161  148  161 1   
   162  162  163 1   
   163  162  171 1   
   164  163  164 1   
   165  163  166 1   
   166  163  172 1   
   167  164  165 2   
   168  164  177 1   
   169  166  167 1   
   170  166  173 1   
   171  166  174 1   
   172  167  168 1   
   173  167  175 1   
   174  167  176 1   
   175  168  169 1   
   176  168  170 1   
   177  177  178 1   
   178  177  182 1   
   179  178  179 1   
   180  178  180 1   
   181  178  181 1   
   182  184  185 1   
   183  184  186 1   
   184  187  188 1   
   185  187  189 1   
   186  190  191 1   
   187  190  192 1   
@<TRIPOS>SUBSTRUCTURE
     1 MOL         1 TEMP              0 ****  ****    0 ROOT
