@<TRIPOS>MOLECULE
MOL
  182   178     1     0     0
SMALL
resp


@<TRIPOS>ATOM
      1 C1          0.2570   -3.3790    6.2390 c3        1 MOL     -0.405150
      2 C2          0.2290   -3.4970    4.7140 c         1 MOL      0.703624
      3 O1         -0.8300   -3.5510    4.0570 o         1 MOL     -0.574319
      4 H1          1.2180   -2.9740    6.5540 hc        1 MOL      0.120819
      5 H2         -0.5420   -2.7140    6.5670 hc        1 MOL      0.120819
      6 H3          0.1150   -4.3650    6.6830 hc        1 MOL      0.120819
      7 N1          1.3790   -3.5880    4.0760 n         1 MOL     -0.501276
      8 C3          1.6870   -3.2920    2.6720 c3        1 MOL     -0.024884
      9 C4          1.8880   -4.5150    1.7940 c         1 MOL      0.697862
     10 O2          2.3980   -5.4930    2.3280 o         1 MOL     -0.586726
     11 C5          3.0210   -2.4740    2.6830 c3        1 MOL     -0.171425
     12 C6          3.1350   -1.6250    1.4080 c         1 MOL      0.705812
     13 O3          3.9780   -0.7560    1.3030 o         1 MOL     -0.762047
     14 O4          2.4380   -1.8780    0.3710 o         1 MOL     -0.762047
     15 H4          2.1850   -3.5420    4.6870 hn        1 MOL      0.291631
     16 H5          0.9100   -2.6390    2.2610 h1        1 MOL      0.026706
     17 H6          3.8440   -3.1310    2.9740 hc        1 MOL      0.096323
     18 H7          3.0180   -1.8490    3.5730 hc        1 MOL      0.096323
     19 N2          1.6350   -4.5080    0.5050 n         1 MOL     -0.577035
     20 C7          2.0170   -5.5990   -0.4500 c3        1 MOL      0.058248
     21 C8          3.4080   -5.5200   -1.0460 c         1 MOL      0.536463
     22 O5          3.9860   -6.5500   -1.2980 o         1 MOL     -0.538430
     23 C9          0.9420   -5.8170   -1.4520 c3        1 MOL     -0.029808
     24 C10        -0.2940   -6.3770   -0.8450 c3        1 MOL      0.196976
     25 C11        -1.4630   -6.4950   -1.8440 c3        1 MOL     -0.229527
     26 C12        -2.5820   -7.4510   -1.3540 c3        1 MOL      0.150615
     27 N3         -3.8280   -7.3740   -2.1530 n4        1 MOL     -0.145697
     28 H8          1.5860   -3.5720    0.1390 hn        1 MOL      0.345769
     29 H9          2.0250   -6.5490    0.0830 h1        1 MOL      0.080488
     30 H10         1.3210   -6.4120   -2.2840 hc        1 MOL     -0.012662
     31 H11         0.6320   -4.8550   -1.8550 hc        1 MOL     -0.012662
     32 H12        -0.6250   -5.7420   -0.0280 hc        1 MOL     -0.007726
     33 H13        -0.0760   -7.4030   -0.5470 hc        1 MOL     -0.007726
     34 H14        -1.1120   -7.0250   -2.7310 hc        1 MOL      0.074672
     35 H15        -1.9460   -5.5200   -1.9660 hc        1 MOL      0.074672
     36 H16        -2.9090   -7.2760   -0.3290 hx        1 MOL      0.039171
     37 H17        -2.2530   -8.4820   -1.4160 hx        1 MOL      0.039171
     38 H18        -4.3310   -6.5010   -2.1510 hn        1 MOL      0.204717
     39 H19        -3.5440   -7.4990   -3.1130 hn        1 MOL      0.204717
     40 H20        -4.5220   -8.0390   -1.8570 hn        1 MOL      0.204717
     41 N4          3.8860   -4.2760   -1.1920 n         1 MOL     -0.302792
     42 C13         5.1490   -4.0500   -1.9030 c3        1 MOL     -0.003917
     43 C14         6.2890   -3.4910   -1.0360 c         1 MOL      0.393982
     44 O6          7.4400   -3.6180   -1.4510 o         1 MOL     -0.538789
     45 C15         4.9960   -3.1780   -3.1570 c3        1 MOL     -0.195859
     46 C16         4.3110   -1.8180   -2.8510 c         1 MOL      0.631266
     47 O7          4.4780   -1.3030   -1.7250 o         1 MOL     -0.686290
     48 O8          3.7010   -1.1810   -3.7230 o         1 MOL     -0.686290
     49 H21         3.4050   -3.4500   -0.8670 hn        1 MOL      0.173689
     50 H22         5.5200   -5.0090   -2.2650 h1        1 MOL      0.121367
     51 H23         4.4490   -3.7370   -3.9140 hc        1 MOL      0.078764
     52 H24         5.9370   -3.0700   -3.6940 hc        1 MOL      0.078764
     53 N5          6.0760   -3.0720    0.1680 n         1 MOL     -0.149636
     54 C17         7.1620   -2.4580    1.0010 c3        1 MOL     -0.150528
     55 C18         7.5570   -0.9880    0.7690 c         1 MOL      0.570376
     56 O9          8.4260   -0.5480    1.5120 o         1 MOL     -0.563150
     57 H25         5.1450   -3.1120    0.5510 hn        1 MOL      0.120149
     58 H26         8.0340   -3.0730    0.8010 h1        1 MOL      0.097861
     59 H27         6.8590   -2.6730    2.0310 h1        1 MOL      0.097861
     60 N6          6.9510   -0.3900   -0.2660 n         1 MOL     -0.222367
     61 C19         7.3120    0.9810   -0.7470 c3        1 MOL     -0.062110
     62 C20         6.3190    2.0800   -0.2690 c         1 MOL      0.376304
     63 O10         5.1110    1.8180   -0.1620 o         1 MOL     -0.406609
     64 C21         7.3400    1.0040   -2.3060 c3        1 MOL     -0.086564
     65 C22         8.3570   -0.0200   -2.8320 c         1 MOL      0.642628
     66 N7          8.3430   -0.3330   -4.0770 n         1 MOL     -0.797604
     67 O11         9.1470   -0.5530   -2.0620 o         1 MOL     -0.524119
     68 H28         6.1160   -0.8700   -0.5630 hn        1 MOL      0.301141
     69 H29         8.3080    1.2490   -0.3920 h1        1 MOL      0.082330
     70 H30         7.6520    2.0140   -2.5470 hc        1 MOL      0.016700
     71 H31         6.3440    0.7730   -2.6870 hc        1 MOL      0.016700
     72 H32         7.7210    0.0920   -4.7550 hn        1 MOL      0.370604
     73 H33         8.9690   -1.0820   -4.3300 hn        1 MOL      0.370604
     74 N8          6.7920    3.3350   -0.0400 n         1 MOL     -0.283552
     75 C23         6.2080    4.5500    0.4290 c3        1 MOL     -0.058041
     76 C24         4.8830    4.4600    1.1530 c         1 MOL      0.616810
     77 O12         4.8570    4.1900    2.3530 o         1 MOL     -0.501344
     78 H34         7.7770    3.4860   -0.2040 hn        1 MOL      0.274795
     79 H35         6.0530    5.1970   -0.4270 h1        1 MOL      0.048075
     80 H36         6.8670    5.0040    1.1690 h1        1 MOL      0.048075
     81 N9          3.7880    4.6990    0.4220 n         1 MOL     -0.633281
     82 C25         2.4140    4.7090    0.9630 c3        1 MOL      0.166613
     83 C26         1.8360    3.3000    1.2620 c         1 MOL      0.633928
     84 O13         2.5340    2.3410    0.9200 o         1 MOL     -0.508258
     85 C27         1.4930    5.3990   -0.0760 c3        1 MOL     -0.386334
     86 C28         1.7360    6.9210   -0.3890 ca        1 MOL      0.156990
     87 C29         1.4050    7.8260    0.6410 ca        1 MOL     -0.175238
     88 C30         2.1730    7.3760   -1.5860 ca        1 MOL     -0.175238
     89 C31         1.6960    9.2470    0.5110 ca        1 MOL     -0.257716
     90 C32         2.2180    8.7900   -1.8730 ca        1 MOL     -0.257716
     91 C33         2.0540    9.7170   -0.7760 ca        1 MOL      0.319427
     92 O14         2.1880   11.0640   -1.0340 oh        1 MOL     -0.477874
     93 H37         3.9040    4.9180   -0.5520 hn        1 MOL      0.352826
     94 H38         2.2530    5.1540    1.9380 h1        1 MOL      0.075412
     95 H39         0.4570    5.3690    0.2520 hc        1 MOL      0.108778
     96 H40         1.5650    4.9050   -1.0520 hc        1 MOL      0.108778
     97 H41         0.9050    7.5070    1.5360 ha        1 MOL      0.126314
     98 H42         2.4610    6.6410   -2.3270 ha        1 MOL      0.126314
     99 H43         1.3490    9.9490    1.2640 ha        1 MOL      0.167196
    100 H44         2.5370    9.0670   -2.8630 ha        1 MOL      0.167196
    101 H45         2.0570   11.5790   -0.2320 ho        1 MOL      0.374607
    102 N10         0.6000    3.2320    1.8430 n         1 MOL     -0.739464
    103 C34         0.0100    1.9670    2.3240 c3        1 MOL      0.298667
    104 C35        -0.3300    0.8890    1.2540 c         1 MOL      0.111654
    105 O15         0.5110    0.4520    0.4580 o         1 MOL     -0.198734
    106 C36         0.9630    1.3110    3.4160 c3        1 MOL      0.098990
    107 C37         0.2230    0.1760    4.1330 c3        1 MOL     -0.250017
    108 C38         1.4940    2.2670    4.5060 c3        1 MOL     -0.238218
    109 C39        -0.9050    0.5740    5.0050 c3        1 MOL     -0.129371
    110 H46         0.1580    4.1310    1.9630 hn        1 MOL      0.362846
    111 H47        -0.9580    2.1960    2.7800 h1        1 MOL      0.026986
    112 H48         1.8140    0.8640    2.9020 hc        1 MOL      0.025463
    113 H49         0.9100   -0.3640    4.7940 hc        1 MOL      0.095367
    114 H50        -0.1410   -0.5800    3.4410 hc        1 MOL      0.095367
    115 H51         0.6890    2.5940    5.1640 hc        1 MOL      0.075652
    116 H52         2.2220    1.7800    5.1450 hc        1 MOL      0.075652
    117 H53         1.9750    3.1140    4.0120 hc        1 MOL      0.075652
    118 H54        -1.4990   -0.2710    5.3460 hc        1 MOL      0.037133
    119 H55        -0.5810    1.1970    5.8380 hc        1 MOL      0.037133
    120 H56        -1.5960    1.1070    4.3480 hc        1 MOL      0.037133
    121 N11        -1.5580    0.4910    1.2320 n         1 MOL     -0.252102
    122 C40        -1.9160   -0.6680    0.4010 c3        1 MOL     -0.334256
    123 C41        -3.3970   -0.8220    0.0560 c         1 MOL      0.635148
    124 O16        -3.8390   -1.8610   -0.2910 o         1 MOL     -0.519079
    125 C42        -1.4080   -1.8970    1.1890 c3        1 MOL      0.325855
    126 O17        -2.0800   -1.9530    2.4450 oh        1 MOL     -0.573230
    127 H57        -2.3020    0.8850    1.7970 hn        1 MOL      0.329104
    128 H58        -1.3820   -0.7120   -0.5510 h1        1 MOL      0.141627
    129 H59        -0.3380   -1.7090    1.2150 h1        1 MOL     -0.031457
    130 H60        -1.6140   -2.8300    0.6630 h1        1 MOL     -0.031457
    131 H61        -1.5840   -2.5640    2.9930 ho        1 MOL      0.377159
    132 N12        -4.1610    0.2360    0.3370 n         1 MOL     -0.484127
    133 C43        -5.5280    0.3390   -0.1200 c3        1 MOL      0.237652
    134 C44        -5.6700    0.7790   -1.6100 c         1 MOL      0.501044
    135 O18        -4.6700    1.1170   -2.2500 o         1 MOL     -0.575335
    136 C45        -6.3400    1.1400    0.9030 c3        1 MOL     -0.479535
    137 H62        -3.7630    1.0940    0.6820 hn        1 MOL      0.243288
    138 H63        -5.9460   -0.6640   -0.0110 h1        1 MOL      0.089533
    139 H64        -7.4240    0.9930    0.8890 hc        1 MOL      0.139226
    140 H65        -6.1270    0.7710    1.9090 hc        1 MOL      0.139226
    141 H66        -5.9900    2.1640    0.8270 hc        1 MOL      0.139226
    142 N13        -6.7610    0.6120   -2.3190 n         1 MOL     -0.536944
    143 C46        -8.0170    0.0060   -1.8940 c3        1 MOL      0.418596
    144 C47        -9.1650    0.6050   -2.6440 c         1 MOL      0.271145
    145 O19        -9.0700    0.7170   -3.8640 o         1 MOL     -0.513873
    146 C48        -8.0190   -1.5430   -2.0020 c3        1 MOL     -0.088057
    147 H67        -6.6530    1.0050   -3.2440 hn        1 MOL      0.325825
    148 H68        -8.2200    0.1800   -0.8440 h1        1 MOL     -0.107532
    149 H69        -6.9820   -1.8310   -1.7890 hc        1 MOL      0.025930
    150 H70        -8.6950   -1.9440   -1.2450 hc        1 MOL      0.025930
    151 H71        -8.2830   -1.8670   -3.0040 hc        1 MOL      0.025930
    152 N14       -10.3880    0.8400   -2.1140 n         1 MOL     -0.194344
    153 C49       -10.8190    0.5300   -0.7360 c3        1 MOL     -0.277477
    154 C50       -10.2630    1.6500    0.2540 c         1 MOL      0.548355
    155 O20        -9.8230    1.4240    1.3800 o         1 MOL     -0.516579
    156 C51       -12.3370    0.4640   -0.8370 c3        1 MOL     -0.207763
    157 C52       -12.9300   -0.1040    0.5220 c3        1 MOL     -0.186177
    158 C53       -14.2220   -0.7190    0.2640 c         1 MOL      0.772176
    159 O21       -15.1630    0.0580    0.1800 o         1 MOL     -0.675782
    160 O22       -14.4560   -1.9110    0.2120 o         1 MOL     -0.675782
    161 H72       -11.0970    0.9910   -2.8230 hn        1 MOL      0.253637
    162 H73       -10.5660   -0.4810   -0.4160 h1        1 MOL      0.207969
    163 H74       -12.5530   -0.2240   -1.6430 hc        1 MOL      0.106225
    164 H75       -12.8990    1.3790   -0.9960 hc        1 MOL      0.106225
    165 H76       -13.0200    0.5960    1.3550 hc        1 MOL      0.050216
    166 H77       -12.2350   -0.8610    0.9100 hc        1 MOL      0.050216
    167 N15       -10.0240    2.8420   -0.3600 n         1 MOL     -0.292354
    168 C54        -9.2380    3.9430    0.2840 c3        1 MOL     -0.066694
    169 H78        -8.2650    3.5620    0.5930 h1        1 MOL      0.063167
    170 H79        -9.0990    4.7560   -0.4280 h1        1 MOL      0.063167
    171 H80        -9.7770    4.3120    1.1580 h1        1 MOL      0.063167
    172 H81       -10.3710    2.9910   -1.3030 hn        1 MOL      0.233147
    173 Ca1         2.7840    0.3800   -0.9810 Ca        1 MOL      1.776957
    174 O23         3.9240    2.2290   -2.6520 oh        1 MOL     -0.891051
    175 H82         4.4660    3.0210   -2.6700 ho        1 MOL      0.424189
    176 H83         3.2220    2.4110   -3.2730 ho        1 MOL      0.424189
    177 O24         1.0490    2.2930   -1.7090 oh        1 MOL     -0.891051
    178 H84         0.2720    1.7330   -1.7000 ho        1 MOL      0.424189
    179 H85         0.7670    3.1080   -2.1120 ho        1 MOL      0.424189
    180 O25         0.7750   -0.6440   -2.3000 oh        1 MOL     -0.891051
    181 H86         0.9740   -0.9360   -3.1870 ho        1 MOL      0.424189
    182 H87        -0.0420   -1.0920   -2.0830 ho        1 MOL      0.424189
@<TRIPOS>BOND
     1    1    2 1   
     2    1    4 1   
     3    1    5 1   
     4    1    6 1   
     5    2    3 2   
     6    2    7 1   
     7    7    8 1   
     8    7   15 1   
     9    8    9 1   
    10    8   11 1   
    11    8   16 1   
    12    9   10 2   
    13    9   19 1   
    14   11   12 1   
    15   11   17 1   
    16   11   18 1   
    17   12   13 1   
    18   12   14 1   
    19   19   20 1   
    20   19   28 1   
    21   20   21 1   
    22   20   23 1   
    23   20   29 1   
    24   21   22 2   
    25   21   41 1   
    26   23   24 1   
    27   23   30 1   
    28   23   31 1   
    29   24   25 1   
    30   24   32 1   
    31   24   33 1   
    32   25   26 1   
    33   25   34 1   
    34   25   35 1   
    35   26   27 1   
    36   26   36 1   
    37   26   37 1   
    38   27   38 1   
    39   27   39 1   
    40   27   40 1   
    41   41   42 1   
    42   41   49 1   
    43   42   43 1   
    44   42   45 1   
    45   42   50 1   
    46   43   44 2   
    47   43   53 1   
    48   45   46 1   
    49   45   51 1   
    50   45   52 1   
    51   46   47 1   
    52   46   48 1   
    53   53   54 1   
    54   53   57 1   
    55   54   55 1   
    56   54   58 1   
    57   54   59 1   
    58   55   56 2   
    59   55   60 1   
    60   60   61 1   
    61   60   68 1   
    62   61   62 1   
    63   61   64 1   
    64   61   69 1   
    65   62   63 2   
    66   62   74 1   
    67   64   65 1   
    68   64   70 1   
    69   64   71 1   
    70   65   66 1   
    71   65   67 2   
    72   66   72 1   
    73   66   73 1   
    74   74   75 1   
    75   74   78 1   
    76   75   76 1   
    77   75   79 1   
    78   75   80 1   
    79   76   77 2   
    80   76   81 1   
    81   81   82 1   
    82   81   93 1   
    83   82   83 1   
    84   82   85 1   
    85   82   94 1   
    86   83   84 2   
    87   83  102 1   
    88   85   86 1   
    89   85   95 1   
    90   85   96 1   
    91   86   87 ar  
    92   86   88 ar  
    93   87   89 ar  
    94   87   97 1   
    95   88   90 ar  
    96   88   98 1   
    97   89   91 ar  
    98   89   99 1   
    99   90   91 ar  
   100   90  100 1   
   101   91   92 1   
   102   92  101 1   
   103  102  103 1   
   104  102  110 1   
   105  103  104 1   
   106  103  106 1   
   107  103  111 1   
   108  104  105 2   
   109  104  121 1   
   110  106  107 1   
   111  106  108 1   
   112  106  112 1   
   113  107  109 1   
   114  107  113 1   
   115  107  114 1   
   116  108  115 1   
   117  108  116 1   
   118  108  117 1   
   119  109  118 1   
   120  109  119 1   
   121  109  120 1   
   122  121  122 1   
   123  121  127 1   
   124  122  123 1   
   125  122  125 1   
   126  122  128 1   
   127  123  124 2   
   128  123  132 1   
   129  125  126 1   
   130  125  129 1   
   131  125  130 1   
   132  126  131 1   
   133  132  133 1   
   134  132  137 1   
   135  133  134 1   
   136  133  136 1   
   137  133  138 1   
   138  134  135 2   
   139  134  142 1   
   140  136  139 1   
   141  136  140 1   
   142  136  141 1   
   143  142  143 1   
   144  142  147 1   
   145  143  144 1   
   146  143  146 1   
   147  143  148 1   
   148  144  145 2   
   149  144  152 1   
   150  146  149 1   
   151  146  150 1   
   152  146  151 1   
   153  152  153 1   
   154  152  161 1   
   155  153  154 1   
   156  153  156 1   
   157  153  162 1   
   158  154  155 2   
   159  154  167 1   
   160  156  157 1   
   161  156  163 1   
   162  156  164 1   
   163  157  158 1   
   164  157  165 1   
   165  157  166 1   
   166  158  159 1   
   167  158  160 1   
   168  167  168 1   
   169  167  172 1   
   170  168  169 1   
   171  168  170 1   
   172  168  171 1   
   173  174  175 1   
   174  174  176 1   
   175  177  178 1   
   176  177  179 1   
   177  180  181 1   
   178  180  182 1   
@<TRIPOS>SUBSTRUCTURE
     1 MOL         1 TEMP              0 ****  ****    0 ROOT
