@<TRIPOS>MOLECULE
MOL
  185   180     1     0     0
SMALL
resp


@<TRIPOS>ATOM
      1 C1          6.0160   -0.5420    5.4850 c3        1 MOL     -0.307520
      2 C2          5.3590   -0.4300    4.0910 c         1 MOL      0.587781
      3 O1          4.2910    0.1550    3.9060 o         1 MOL     -0.579880
      4 H1          6.6400    0.3340    5.6640 hc        1 MOL      0.078326
      5 H2          5.2410   -0.5970    6.2500 hc        1 MOL      0.078326
      6 H3          6.6320   -1.4410    5.5260 hc        1 MOL      0.078326
      7 N1          6.2010   -0.6730    3.0800 n         1 MOL     -0.320821
      8 C3          5.9030   -0.3720    1.6770 c3        1 MOL      0.015398
      9 C4          5.0330   -1.4350    1.0260 c         1 MOL      0.230062
     10 O2          3.9190   -1.1760    0.5510 o         1 MOL     -0.468629
     11 C5          7.1460   -0.1910    0.8070 c3        1 MOL     -0.118826
     12 C6          8.2690   -1.2230    0.9490 c         1 MOL      0.629142
     13 O3          9.3210   -1.1550    0.2370 o         1 MOL     -0.636155
     14 O4          8.1620   -2.1650    1.7970 o         1 MOL     -0.636155
     15 H4          7.0760   -1.1500    3.2660 hn        1 MOL      0.207366
     16 H5          5.3310    0.5470    1.5700 h1        1 MOL      0.090854
     17 H6          7.6690    0.7500    1.0050 hc        1 MOL      0.057089
     18 H7          6.7630   -0.0250   -0.2030 hc        1 MOL      0.057089
     19 N2          5.4070   -2.7220    1.1660 n         1 MOL     -0.004457
     20 C7          4.5870   -3.8650    0.8160 c3        1 MOL     -0.159984
     21 C8          4.5080   -4.1010   -0.6920 c         1 MOL      0.473329
     22 O5          5.5190   -4.4240   -1.3050 o         1 MOL     -0.519610
     23 C9          5.0570   -5.0980    1.6080 c3        1 MOL     -0.019628
     24 C10         4.7480   -5.0670    3.1010 c3        1 MOL      0.138380
     25 C11         5.3590   -6.2040    3.9140 c3        1 MOL     -0.160882
     26 C12         5.2520   -7.5780    3.4070 c3        1 MOL      0.133423
     27 N3          5.7960   -8.5400    4.3220 n4        1 MOL     -0.265163
     28 H8          6.2610   -2.8500    1.6890 hn        1 MOL      0.101385
     29 H9          3.5650   -3.6410    1.1200 h1        1 MOL      0.088480
     30 H10         6.1020   -5.2290    1.3460 hc        1 MOL      0.053925
     31 H11         4.6280   -5.9840    1.1410 hc        1 MOL      0.053925
     32 H12         3.6560   -5.0630    3.1100 hc        1 MOL     -0.016570
     33 H13         4.9120   -4.0980    3.5610 hc        1 MOL     -0.016570
     34 H14         5.0470   -6.1590    4.9530 hc        1 MOL      0.050264
     35 H15         6.4050   -5.9040    3.8910 hc        1 MOL      0.050264
     36 H16         5.5860   -7.6270    2.3740 hx        1 MOL      0.040801
     37 H17         4.1670   -7.7540    3.4220 hx        1 MOL      0.040801
     38 H18         5.3850   -8.5900    5.2470 hn        1 MOL      0.291501
     39 H19         5.7560   -9.4670    3.9150 hn        1 MOL      0.291501
     40 H20         6.7690   -8.3280    4.4670 hn        1 MOL      0.291501
     41 N4          3.3570   -3.9030   -1.3230 n         1 MOL     -0.418226
     42 C13         3.2100   -3.7940   -2.8230 c3        1 MOL      0.096262
     43 C14         3.7840   -2.4640   -3.4010 c         1 MOL      0.351096
     44 O6          3.8360   -2.3580   -4.6290 o         1 MOL     -0.505007
     45 C15         1.6970   -3.7920   -3.2120 c3        1 MOL     -0.441954
     46 C16         0.7390   -2.8500   -2.4060 c         1 MOL      0.945007
     47 O7          1.0950   -2.2890   -1.3610 o         1 MOL     -0.822221
     48 O8         -0.4500   -2.6310   -2.7550 o         1 MOL     -0.822221
     49 H21         2.6700   -3.4700   -0.7290 hn        1 MOL      0.256542
     50 H22         3.5950   -4.7170   -3.2540 h1        1 MOL      0.130208
     51 H23         1.2910   -4.8020   -3.1290 hc        1 MOL      0.128901
     52 H24         1.6140   -3.3760   -4.2160 hc        1 MOL      0.128901
     53 N5          4.1780   -1.4230   -2.6110 n         1 MOL     -0.210571
     54 C17         4.7430   -0.1800   -3.1150 c3        1 MOL      0.109419
     55 C18         6.2170   -0.0120   -3.1250 c         1 MOL      0.581962
     56 O9          6.9780   -0.9670   -2.9220 o         1 MOL     -0.490217
     57 H25         4.3110   -1.6730   -1.6420 hn        1 MOL      0.232249
     58 H26         4.2850    0.5880   -2.4890 h1        1 MOL      0.021244
     59 H27         4.4850    0.0240   -4.1540 h1        1 MOL      0.021244
     60 N6          6.7870    1.2150   -3.2400 n         1 MOL     -0.744494
     61 C19         6.1690    2.5560   -3.1620 c3        1 MOL      0.539178
     62 C20         5.9820    2.8520   -1.6910 c         1 MOL      0.435024
     63 O10         6.9760    2.8130   -0.9790 o         1 MOL     -0.571452
     64 C21         7.0300    3.5920   -3.9470 c3        1 MOL     -0.389887
     65 C22         6.7080    5.0310   -3.6270 c         1 MOL      0.720793
     66 N7          7.6590    5.8210   -3.1630 n         1 MOL     -0.778724
     67 O11         5.5890    5.4570   -3.8380 o         1 MOL     -0.567193
     68 H28         7.7840    1.3030   -3.3710 hn        1 MOL      0.366406
     69 H29         5.1630    2.5900   -3.5630 h1        1 MOL     -0.069694
     70 H30         6.9050    3.3690   -5.0100 hc        1 MOL      0.095251
     71 H31         8.0630    3.4000   -3.6480 hc        1 MOL      0.095251
     72 H32         8.6150    5.5330   -2.9960 hn        1 MOL      0.362449
     73 H33         7.5290    6.8150   -3.0860 hn        1 MOL      0.362449
     74 N8          4.8290    3.1080   -1.1710 n         1 MOL     -0.362448
     75 C23         3.4500    3.2770   -1.8040 c3        1 MOL     -0.279474
     76 C24         2.5610    3.9710   -0.7440 c         1 MOL      0.744272
     77 O12         3.0220    4.8060   -0.0010 o         1 MOL     -0.536290
     78 H34         4.9460    3.1970   -0.1790 hn        1 MOL      0.287927
     79 H35         3.0250    2.2750   -1.7750 h1        1 MOL      0.125384
     80 H36         3.5210    3.7320   -2.7870 h1        1 MOL      0.125384
     81 N9          1.2840    3.5880   -0.6330 n         1 MOL     -0.648204
     82 C25         0.4640    4.0170    0.5480 c3        1 MOL      0.191196
     83 C26        -0.6110    2.9400    0.9010 c         1 MOL      0.652790
     84 O13        -0.6450    1.8560    0.3450 o         1 MOL     -0.618452
     85 C27        -0.2070    5.4170    0.3610 c3        1 MOL     -0.211430
     86 C28        -0.8380    6.1260    1.5420 ca        1 MOL      0.058531
     87 C29        -2.2030    6.5460    1.4740 ca        1 MOL     -0.116881
     88 C30        -0.0410    6.2730    2.7410 ca        1 MOL     -0.116881
     89 C31        -2.7400    7.1880    2.6640 ca        1 MOL     -0.311404
     90 C32        -0.5710    6.9840    3.9090 ca        1 MOL     -0.311404
     91 C33        -1.9520    7.4210    3.8620 ca        1 MOL      0.355528
     92 O14        -2.6650    7.7750    4.9700 oh        1 MOL     -0.498836
     93 H37         1.0590    2.7270   -1.0960 hn        1 MOL      0.314603
     94 H38         1.1760    4.1190    1.3600 h1        1 MOL      0.041301
     95 H39        -0.9290    5.3650   -0.4560 hc        1 MOL      0.101941
     96 H40         0.5540    6.0830   -0.0230 hc        1 MOL      0.101941
     97 H41        -2.8910    6.2020    0.7040 ha        1 MOL      0.145425
     98 H42         0.9340    5.8100    2.8700 ha        1 MOL      0.145425
     99 H43        -3.7930    7.4230    2.6050 ha        1 MOL      0.163656
    100 H44        -0.0570    7.0970    4.8570 ha        1 MOL      0.163656
    101 H45        -2.1350    7.7920    5.7670 ho        1 MOL      0.384638
    102 N10        -1.6290    3.3100    1.6280 n         1 MOL     -0.747432
    103 C34        -2.8650    2.5200    1.7240 c3        1 MOL      1.104107
    104 C35        -3.8490    2.8040    0.5980 c         1 MOL      0.214413
    105 O15        -4.0350    3.9920    0.2360 o         1 MOL     -0.532850
    106 C36        -3.6310    2.6050    3.0640 c3        1 MOL     -0.038528
    107 C37        -3.0430    1.6650    4.1190 c3        1 MOL     -0.017826
    108 C38        -3.7260    4.0280    3.7750 c3        1 MOL     -0.191831
    109 C39        -2.7060    0.2360    3.7060 c3        1 MOL     -0.116672
    110 H46        -1.6460    4.2460    2.0080 hn        1 MOL      0.177841
    111 H47        -2.5530    1.5120    1.4770 h1        1 MOL     -0.291322
    112 H48        -4.6140    2.1850    2.8430 hc        1 MOL     -0.000979
    113 H49        -3.6950    1.6600    4.9900 hc        1 MOL      0.007649
    114 H50        -2.0950    2.0700    4.4880 hc        1 MOL      0.007649
    115 H51        -2.7900    4.4230    4.1720 hc        1 MOL      0.053528
    116 H52        -4.1880    4.7110    3.0680 hc        1 MOL      0.053528
    117 H53        -4.3840    3.8640    4.6250 hc        1 MOL      0.053528
    118 H54        -3.5390   -0.2320    3.1830 hc        1 MOL      0.019292
    119 H55        -1.9440    0.2530    2.9250 hc        1 MOL      0.019292
    120 H56        -2.4130   -0.3080    4.6070 hc        1 MOL      0.019292
    121 N11        -4.5450    1.8110    0.0680 n         1 MOL     -0.212110
    122 C40        -5.7430    2.0830   -0.7610 c3        1 MOL      0.013676
    123 C41        -6.1480    0.9040   -1.6370 c         1 MOL      0.241072
    124 O16        -5.7160   -0.2210   -1.3600 o         1 MOL     -0.104834
    125 C42        -6.9600    2.4970    0.0470 c3        1 MOL      0.001515
    126 O17        -7.2330    1.6320    1.0670 oh        1 MOL     -0.580659
    127 H57        -4.2520    0.8810    0.3150 hn        1 MOL      0.149422
    128 H58        -5.6180    2.9170   -1.4490 h1        1 MOL      0.080872
    129 H59        -7.8620    2.5790   -0.5570 h1        1 MOL      0.063173
    130 H60        -6.7370    3.4600    0.5100 h1        1 MOL      0.063173
    131 H61        -8.1150    1.8930    1.3590 ho        1 MOL      0.417405
    132 N12        -6.8600    1.1550   -2.7680 n         1 MOL     -0.381377
    133 C43        -7.3040    0.1680   -3.6800 c3        1 MOL      0.109248
    134 C44        -8.1170   -1.0380   -3.1320 c         1 MOL      0.424709
    135 O18        -7.9630   -2.1270   -3.6220 o         1 MOL     -0.424582
    136 C45        -6.0620   -0.2630   -4.5450 c3        1 MOL     -0.267657
    137 H62        -7.1420    2.0940   -3.0180 hn        1 MOL      0.299834
    138 H63        -7.9520    0.7070   -4.3710 h1        1 MOL      0.064093
    139 H64        -5.3830   -0.8620   -3.9430 hc        1 MOL      0.078908
    140 H65        -6.3840   -0.8400   -5.4170 hc        1 MOL      0.078908
    141 H66        -5.6600    0.7050   -4.8500 hc        1 MOL      0.078908
    142 N13        -8.8380   -0.8100   -1.9940 n         1 MOL     -0.521265
    143 C46        -9.5950   -1.8380   -1.2710 c3        1 MOL      0.277560
    144 C47        -8.7210   -3.0480   -0.8030 c         1 MOL      0.242786
    145 O19        -9.2020   -4.0580   -0.2820 o         1 MOL     -0.457663
    146 C48       -10.7080   -2.4410   -2.1120 c3        1 MOL     -0.437738
    147 H67        -9.0000    0.1550   -1.7660 hn        1 MOL      0.292011
    148 H68       -10.0630   -1.4130   -0.3750 h1        1 MOL      0.042594
    149 H69       -11.4180   -2.8800   -1.4210 hc        1 MOL      0.131172
    150 H70       -11.1820   -1.5930   -2.6250 hc        1 MOL      0.131172
    151 H71       -10.3380   -3.2220   -2.7830 hc        1 MOL      0.131172
    152 N14        -7.3880   -2.8410   -0.6880 n         1 MOL      0.047991
    153 C49        -6.4580   -3.8030   -0.0550 c3        1 MOL     -0.152773
    154 C50        -6.8600   -4.2440    1.3750 c         1 MOL      0.507745
    155 O20        -6.8190   -5.5090    1.6340 o         1 MOL     -0.549059
    156 C51        -4.9530   -3.3350   -0.1070 c3        1 MOL      0.223816
    157 C52        -4.5400   -2.4910    1.0650 c3        1 MOL     -0.292640
    158 C53        -3.1710   -1.8400    0.6960 c         1 MOL      0.690864
    159 O21        -3.0000   -0.6130    0.5380 o         1 MOL     -0.723742
    160 O22        -2.2180   -2.5860    0.3500 o         1 MOL     -0.723742
    161 H72        -7.0170   -1.9450   -0.9680 hn        1 MOL     -0.073003
    162 H73        -6.5970   -4.7200   -0.6240 h1        1 MOL      0.101011
    163 H74        -4.8330   -2.7050   -0.9850 hc        1 MOL     -0.021551
    164 H75        -4.3860   -4.2630   -0.2350 hc        1 MOL     -0.021551
    165 H76        -4.4070   -3.1970    1.8840 hc        1 MOL      0.071786
    166 H77        -5.1770   -1.6430    1.3300 hc        1 MOL      0.071786
    167 N15        -7.2790   -3.3680    2.2350 n         1 MOL     -0.248684
    168 C54        -7.7660   -3.7810    3.5760 c3        1 MOL     -0.185393
    169 H78        -7.6480   -2.9540    4.2760 h1        1 MOL      0.097353
    170 H79        -8.8190   -4.0550    3.5110 h1        1 MOL      0.097353
    171 H80        -7.1890   -4.6370    3.9250 h1        1 MOL      0.097353
    172 H81        -7.3040   -2.3910    1.9520 hn        1 MOL      0.212647
    173 Ca1        -0.8330   -0.5690   -0.9770 Ca        1 MOL      1.821570
    174 O23        -0.2110   -1.0830    1.4560 oh        1 MOL     -0.890970
    175 H82        -0.8560   -1.6780    1.8340 ho        1 MOL      0.434788
    176 H83         0.4920   -1.0340    2.1030 ho        1 MOL      0.434788
    177 O24         2.1710    0.5350   -0.3230 oh        1 MOL     -0.890970
    178 O25        -0.0690    0.4420   -3.2280 oh        1 MOL     -0.890970
    179 H84         2.3380    1.0140    0.4930 ho        1 MOL      0.434788
    180 H85         0.6810    0.1970   -3.7700 ho        1 MOL      0.434788
    181 H86         2.7270   -0.2450   -0.2710 ho        1 MOL      0.434788
    182 H87        -0.6940    0.8250   -3.8490 ho        1 MOL      0.434788
    183 O26        -3.3310   -0.5880   -2.1890 oh        1 MOL     -0.890970
    184 H88        -4.1540   -0.2890   -1.7910 ho        1 MOL      0.434788
    185 H89        -3.5180   -1.4720   -2.4830 ho        1 MOL      0.434788
@<TRIPOS>BOND
     1    1    2 1   
     2    1    4 1   
     3    1    5 1   
     4    1    6 1   
     5    2    3 2   
     6    2    7 1   
     7    7    8 1   
     8    7   15 1   
     9    8    9 1   
    10    8   11 1   
    11    8   16 1   
    12    9   10 2   
    13    9   19 1   
    14   11   12 1   
    15   11   17 1   
    16   11   18 1   
    17   12   13 1   
    18   12   14 1   
    19   19   20 1   
    20   19   28 1   
    21   20   21 1   
    22   20   23 1   
    23   20   29 1   
    24   21   22 2   
    25   21   41 1   
    26   23   24 1   
    27   23   30 1   
    28   23   31 1   
    29   24   25 1   
    30   24   32 1   
    31   24   33 1   
    32   25   26 1   
    33   25   34 1   
    34   25   35 1   
    35   26   27 1   
    36   26   36 1   
    37   26   37 1   
    38   27   38 1   
    39   27   39 1   
    40   27   40 1   
    41   41   42 1   
    42   41   49 1   
    43   42   43 1   
    44   42   45 1   
    45   42   50 1   
    46   43   44 2   
    47   43   53 1   
    48   45   46 1   
    49   45   51 1   
    50   45   52 1   
    51   46   47 1   
    52   46   48 1   
    53   53   54 1   
    54   53   57 1   
    55   54   55 1   
    56   54   58 1   
    57   54   59 1   
    58   55   56 2   
    59   55   60 1   
    60   60   61 1   
    61   60   68 1   
    62   61   62 1   
    63   61   64 1   
    64   61   69 1   
    65   62   63 2   
    66   62   74 1   
    67   64   65 1   
    68   64   70 1   
    69   64   71 1   
    70   65   66 1   
    71   65   67 2   
    72   66   72 1   
    73   66   73 1   
    74   74   75 1   
    75   74   78 1   
    76   75   76 1   
    77   75   79 1   
    78   75   80 1   
    79   76   77 2   
    80   76   81 1   
    81   81   82 1   
    82   81   93 1   
    83   82   83 1   
    84   82   85 1   
    85   82   94 1   
    86   83   84 2   
    87   83  102 1   
    88   85   86 1   
    89   85   95 1   
    90   85   96 1   
    91   86   87 ar  
    92   86   88 ar  
    93   87   89 ar  
    94   87   97 1   
    95   88   90 ar  
    96   88   98 1   
    97   89   91 ar  
    98   89   99 1   
    99   90   91 ar  
   100   90  100 1   
   101   91   92 1   
   102   92  101 1   
   103  102  103 1   
   104  102  110 1   
   105  103  104 1   
   106  103  106 1   
   107  103  111 1   
   108  104  105 2   
   109  104  121 1   
   110  106  107 1   
   111  106  108 1   
   112  106  112 1   
   113  107  109 1   
   114  107  113 1   
   115  107  114 1   
   116  108  115 1   
   117  108  116 1   
   118  108  117 1   
   119  109  118 1   
   120  109  119 1   
   121  109  120 1   
   122  121  122 1   
   123  121  127 1   
   124  122  123 1   
   125  122  125 1   
   126  122  128 1   
   127  123  124 2   
   128  123  132 1   
   129  125  126 1   
   130  125  129 1   
   131  125  130 1   
   132  126  131 1   
   133  132  133 1   
   134  132  137 1   
   135  133  134 1   
   136  133  136 1   
   137  133  138 1   
   138  134  135 2   
   139  134  142 1   
   140  136  139 1   
   141  136  140 1   
   142  136  141 1   
   143  142  143 1   
   144  142  147 1   
   145  143  144 1   
   146  143  146 1   
   147  143  148 1   
   148  144  145 2   
   149  144  152 1   
   150  146  149 1   
   151  146  150 1   
   152  146  151 1   
   153  152  153 1   
   154  152  161 1   
   155  153  154 1   
   156  153  156 1   
   157  153  162 1   
   158  154  155 2   
   159  154  167 1   
   160  156  157 1   
   161  156  163 1   
   162  156  164 1   
   163  157  158 1   
   164  157  165 1   
   165  157  166 1   
   166  158  159 1   
   167  158  160 1   
   168  167  168 1   
   169  167  172 1   
   170  168  169 1   
   171  168  170 1   
   172  168  171 1   
   173  174  175 1   
   174  174  176 1   
   175  177  179 1   
   176  177  181 1   
   177  178  180 1   
   178  178  182 1   
   179  183  184 1   
   180  183  185 1   
@<TRIPOS>SUBSTRUCTURE
     1 MOL         1 TEMP              0 ****  ****    0 ROOT
