@<TRIPOS>MOLECULE
MOL
  198   191     1     0     0
SMALL
resp


@<TRIPOS>ATOM
      1 C1          4.8160    0.6810    6.4350 c3        1 MOL     -0.402878
      2 C2          4.6830    0.7150    4.8850 c         1 MOL      0.703645
      3 O1          4.3750    1.7890    4.3910 o         1 MOL     -0.562791
      4 H1          3.8530    0.4220    6.8760 hc        1 MOL      0.104804
      5 H2          5.5580   -0.0640    6.7220 hc        1 MOL      0.104804
      6 H3          5.1270    1.6620    6.7950 hc        1 MOL      0.104804
      7 N1          4.8360   -0.3860    4.1690 n         1 MOL     -0.487690
      8 C3          4.7400   -0.4380    2.6850 c3        1 MOL      0.004889
      9 C4          3.3160   -0.4220    2.1410 c         1 MOL      0.235924
     10 O2          3.0650   -0.3580    0.9330 o         1 MOL     -0.283632
     11 C5          5.5060   -1.6310    2.0860 c3        1 MOL     -0.115506
     12 C6          5.4470   -3.0050    2.8500 c         1 MOL      0.647952
     13 O3          5.1610   -3.9870    2.1500 o         1 MOL     -0.666440
     14 O4          5.8490   -3.1600    4.0260 o         1 MOL     -0.666440
     15 H4          5.1560   -1.2360    4.6120 hn        1 MOL      0.273974
     16 H5          5.2500    0.4330    2.2760 h1        1 MOL      0.106856
     17 H6          6.5690   -1.3770    2.0730 hc        1 MOL      0.046842
     18 H7          5.2990   -1.8460    1.0340 hc        1 MOL      0.046842
     19 N2          2.2970   -0.5250    3.0350 n         1 MOL     -0.269879
     20 C7          0.9060   -0.7790    2.6220 c3        1 MOL      0.149094
     21 C8         -0.0370    0.2920    3.1600 c         1 MOL      0.468269
     22 O5          0.0410    0.7350    4.2920 o         1 MOL     -0.574566
     23 C9          0.5130   -2.2060    3.0200 c3        1 MOL     -0.204683
     24 C10         1.1960   -3.2460    2.1420 c3        1 MOL      0.205056
     25 C11         0.9330   -4.7120    2.6170 c3        1 MOL     -0.116002
     26 C12         1.7460   -5.7690    1.8660 c3        1 MOL      0.183122
     27 N3          3.1890   -5.7830    2.3020 n4        1 MOL     -0.347699
     28 H8          2.5580   -0.5950    4.0150 hn        1 MOL      0.216666
     29 H9          0.9890   -0.6640    1.5410 h1        1 MOL      0.121123
     30 H10        -0.5690   -2.2440    2.8720 hc        1 MOL      0.051839
     31 H11         0.7710   -2.4280    4.0580 hc        1 MOL      0.051839
     32 H12         2.2790   -3.1020    2.1980 hc        1 MOL     -0.019712
     33 H13         0.9530   -2.9330    1.1270 hc        1 MOL     -0.019712
     34 H14        -0.1330   -4.9540    2.5550 hc        1 MOL      0.046839
     35 H15         1.2550   -4.6530    3.6570 hc        1 MOL      0.046839
     36 H16         1.7560   -5.4330    0.8230 hx        1 MOL      0.012115
     37 H17         1.3590   -6.7740    2.0000 hx        1 MOL      0.012115
     38 H18         3.6520   -6.5560    1.8570 hn        1 MOL      0.293277
     39 H19         3.6690   -4.9620    1.9450 hn        1 MOL      0.293277
     40 H20         3.2850   -5.8920    3.3010 hn        1 MOL      0.293277
     41 N4         -1.0150    0.8000    2.4930 n         1 MOL     -0.159366
     42 C13        -1.5270    0.4840    1.1270 c3        1 MOL     -0.302549
     43 C14        -1.7680   -1.0300    0.8760 c         1 MOL      0.056364
     44 O6         -1.0770   -1.6440    0.0850 o         1 MOL     -0.384547
     45 C15        -0.6410    1.1130    0.0790 c3        1 MOL      0.092208
     46 C16        -0.6040    2.6240   -0.0900 c         1 MOL      0.813644
     47 O7         -0.9900    3.3360    0.8490 o         1 MOL     -0.820585
     48 O8         -0.1970    3.0640   -1.1510 o         1 MOL     -0.820585
     49 H21        -1.5270    1.4920    3.0340 hn        1 MOL      0.250301
     50 H22        -2.4900    0.9560    0.9440 h1        1 MOL      0.158365
     51 H23        -0.8790    0.6420   -0.8780 hc        1 MOL     -0.024527
     52 H24         0.3890    0.8210    0.2610 hc        1 MOL     -0.024527
     53 N5         -2.6900   -1.7140    1.5790 n         1 MOL     -0.084683
     54 C17        -3.6210   -1.0550    2.5240 c3        1 MOL      0.058252
     55 C18        -4.6650   -2.0520    3.0770 c         1 MOL      0.467903
     56 O9         -4.4820   -3.2130    2.9630 o         1 MOL     -0.499883
     57 H25        -2.6120   -2.7090    1.4410 hn        1 MOL      0.222418
     58 H26        -4.1940   -0.2820    2.0080 h1        1 MOL      0.010372
     59 H27        -3.1100   -0.5030    3.3200 h1        1 MOL      0.010372
     60 N6         -5.8130   -1.4540    3.5730 n         1 MOL     -0.359866
     61 C19        -6.2920   -0.0650    3.4390 c3        1 MOL     -0.214798
     62 C20        -7.0640    0.2220    2.1190 c         1 MOL      0.585672
     63 O10        -7.4960   -0.6530    1.3820 o         1 MOL     -0.464334
     64 C21        -7.2020    0.2310    4.5920 c3        1 MOL     -0.191147
     65 C22        -8.3370   -0.7760    4.7510 c         1 MOL      0.751741
     66 O11        -8.2950   -1.6140    5.6540 o         1 MOL     -0.651912
     67 O12        -9.3940   -0.6140    4.0940 o         1 MOL     -0.651912
     68 H28        -6.4640   -2.1400    3.9200 hn        1 MOL      0.289423
     69 H29        -5.4920    0.6560    3.6220 h1        1 MOL      0.139968
     70 H30        -7.6380    1.2130    4.4170 hc        1 MOL      0.042133
     71 H31        -6.5710    0.2580    5.4730 hc        1 MOL      0.042133
     72 N7         -7.0220    1.4930    1.6680 n         1 MOL     -0.279824
     73 C23        -7.7550    2.1000    0.5560 c3        1 MOL     -0.249019
     74 C24        -7.4890    1.4190   -0.7710 c         1 MOL      0.580046
     75 O13        -8.4150    1.0680   -1.5020 o         1 MOL     -0.546460
     76 H32        -6.4450    2.1400    2.1840 hn        1 MOL      0.204005
     77 H33        -7.4200    3.1340    0.4650 h1        1 MOL      0.123960
     78 H34        -8.8290    2.0400    0.7710 h1        1 MOL      0.123960
     79 N8         -6.2510    1.2180   -1.1380 n         1 MOL     -0.422914
     80 C25        -5.8130    0.3110   -2.2240 c3        1 MOL     -0.095674
     81 C26        -4.7460   -0.5580   -1.6200 c         1 MOL      0.648610
     82 O14        -3.8020   -0.1280   -0.9990 o         1 MOL     -0.502407
     83 C27        -5.4360    1.1120   -3.5160 c3        1 MOL      0.460077
     84 C28        -4.9140    2.4990   -3.2920 c3        1 MOL     -0.546895
     85 O15        -6.4390    1.0020   -4.5270 oh        1 MOL     -0.652725
     86 H35        -5.4950    1.7170   -0.6990 hn        1 MOL      0.233722
     87 H36        -6.6570   -0.3550   -2.4610 h1        1 MOL      0.124789
     88 H37        -4.5630    0.5150   -3.7870 h1        1 MOL      0.016189
     89 H38        -6.9410    1.8240   -4.4950 ho        1 MOL      0.427563
     90 H39        -4.2820    2.5570   -2.4170 hc        1 MOL      0.119562
     91 H40        -4.3610    2.7730   -4.1920 hc        1 MOL      0.119562
     92 H41        -5.8260    3.0850   -3.1550 hc        1 MOL      0.119562
     93 N9         -4.8580   -1.8510   -2.0740 n         1 MOL     -0.594280
     94 C29        -3.8250   -2.8840   -1.7060 c3        1 MOL     -0.129479
     95 C30        -2.4920   -2.8480   -2.4530 c         1 MOL      0.281744
     96 O16        -1.8380   -3.9050   -2.5700 o         1 MOL     -0.490600
     97 C31        -4.5140   -4.3050   -1.6070 c3        1 MOL      0.136849
     98 C32        -4.9340   -4.8270   -3.0090 c3        1 MOL      0.026705
     99 C33        -5.7130   -4.3020   -0.6560 c3        1 MOL     -0.166896
    100 C34        -5.5910   -6.2700   -3.0850 c3        1 MOL     -0.244429
    101 H42        -5.5690   -2.1570   -2.7340 hn        1 MOL      0.363043
    102 H43        -3.5500   -2.6220   -0.6840 h1        1 MOL      0.217781
    103 H44        -3.7860   -4.9620   -1.1350 hc        1 MOL      0.021028
    104 H45        -4.0030   -4.9480   -3.5760 hc        1 MOL      0.019140
    105 H46        -5.5100   -4.0920   -3.5620 hc        1 MOL      0.019140
    106 H47        -6.5940   -3.9930   -1.2160 hc        1 MOL      0.045284
    107 H48        -5.9190   -5.3140   -0.2910 hc        1 MOL      0.045284
    108 H49        -5.5710   -3.7270    0.2580 hc        1 MOL      0.045284
    109 H50        -5.0770   -6.9750   -2.4290 hc        1 MOL      0.064362
    110 H51        -6.6440   -6.2500   -2.7970 hc        1 MOL      0.064362
    111 H52        -5.4770   -6.7750   -4.0470 hc        1 MOL      0.064362
    112 N10        -2.2130   -1.7110   -3.1100 n         1 MOL      0.085049
    113 C35        -1.1980   -1.5210   -4.1110 c3        1 MOL      0.012600
    114 C36         0.2630   -1.6620   -3.6450 c         1 MOL      0.309117
    115 O17         1.1430   -1.9190   -4.5830 o         1 MOL     -0.514860
    116 C37        -1.4340   -0.1600   -4.8040 c3        1 MOL     -0.036292
    117 C38        -1.4950    1.0820   -3.9880 c3        1 MOL     -0.237070
    118 O18        -2.4890   -0.1930   -5.6850 oh        1 MOL     -0.577594
    119 H53        -2.7290   -0.8620   -2.9280 hn        1 MOL      0.066251
    120 H54        -1.3070   -2.3380   -4.8290 h1        1 MOL      0.111344
    121 H55        -0.5170   -0.0130   -5.3850 h1        1 MOL      0.106068
    122 H56        -2.2260    0.4320   -6.3630 ho        1 MOL      0.408282
    123 H57        -0.6140    1.0370   -3.3560 hc        1 MOL      0.132540
    124 H58        -1.5400    2.0630   -4.4750 hc        1 MOL      0.132540
    125 H59        -2.2980    0.9770   -3.2650 hc        1 MOL      0.132540
    126 N11         0.5750   -1.5350   -2.3340 n         1 MOL     -0.127301
    127 C39         1.9320   -1.7160   -1.7490 c3        1 MOL      0.229955
    128 C40         2.9760   -0.6320   -2.2780 c         1 MOL      0.388806
    129 O19         2.6580    0.1190   -3.2180 o         1 MOL     -0.488503
    130 C41         2.3990   -3.1200   -1.9320 c3        1 MOL      0.035431
    131 C42         1.4590   -4.2130   -1.5550 c3        1 MOL     -0.007344
    132 O20         3.5200   -3.3490   -1.1020 oh        1 MOL     -0.778893
    133 H60        -0.2100   -1.4340   -1.7070 hn        1 MOL      0.074016
    134 H61         1.8040   -1.5140   -0.6810 h1        1 MOL     -0.010233
    135 H62         2.6730   -3.2050   -2.9830 h1        1 MOL      0.043905
    136 H63         3.8010   -4.2330   -1.3200 ho        1 MOL      0.432712
    137 H64         0.8240   -3.9900   -0.6970 hc        1 MOL      0.017106
    138 H65         0.6720   -4.2310   -2.3070 hc        1 MOL      0.017106
    139 H66         1.8170   -5.2330   -1.4310 hc        1 MOL      0.017106
    140 N12         4.2060   -0.6840   -1.7170 n         1 MOL     -0.156741
    141 C43         5.3800   -0.1710   -2.3800 c3        1 MOL     -0.107662
    142 C44         5.7060    1.2160   -1.9230 c         1 MOL      0.437524
    143 O21         6.6290    1.7930   -2.4340 o         1 MOL     -0.534380
    144 C45         6.6010   -1.1310   -2.2540 c3        1 MOL      0.055099
    145 C46         6.5150   -2.6080   -2.6300 c3        1 MOL      0.123603
    146 C47         7.8610   -3.3330   -2.6430 c3        1 MOL     -0.049775
    147 C48         7.4540   -4.7850   -2.6880 c3        1 MOL      0.100270
    148 N13         8.5840   -5.6550   -2.2760 n4        1 MOL     -0.266365
    149 H67         4.2510   -1.2050   -0.8490 hn        1 MOL      0.266817
    150 H68         5.1710   -0.0700   -3.4440 h1        1 MOL      0.123991
    151 H69         6.9300   -1.0740   -1.2210 hc        1 MOL     -0.025209
    152 H70         7.3800   -0.6890   -2.8750 hc        1 MOL     -0.025209
    153 H71         5.9420   -2.6190   -3.5560 hc        1 MOL     -0.000763
    154 H72         5.9320   -3.0340   -1.8110 hc        1 MOL     -0.000763
    155 H73         8.2730   -3.2350   -1.6370 hc        1 MOL      0.037773
    156 H74         8.5360   -3.0450   -3.4430 hc        1 MOL      0.037773
    157 H75         7.2000   -4.9440   -3.7400 hx        1 MOL      0.029838
    158 H76         6.5820   -4.9110   -2.0550 hx        1 MOL      0.029838
    159 H77         8.2820   -6.5920   -2.4950 hn        1 MOL      0.259450
    160 H78         9.3900   -5.5090   -2.8780 hn        1 MOL      0.259450
    161 H79         8.7480   -5.5520   -1.2840 hn        1 MOL      0.259450
    162 N14         5.0630    1.6860   -0.8160 n         1 MOL     -0.039050
    163 C49         5.4140    2.9400   -0.1100 c3        1 MOL     -0.271550
    164 C50         6.7920    2.7570    0.5360 c         1 MOL      0.602014
    165 O22         6.8680    2.2190    1.6340 o         1 MOL     -0.505603
    166 C51         4.2470    3.4580    0.8890 c3        1 MOL     -0.153960
    167 C52         2.9220    3.7110    0.0130 c3        1 MOL      0.136132
    168 C53         2.9770    5.0290   -0.6740 c         1 MOL      0.698736
    169 O23         3.9420    5.7970   -0.6520 o         1 MOL     -0.703237
    170 O24         1.9310    5.3780   -1.2330 o         1 MOL     -0.703237
    171 H80         4.3770    1.0470   -0.4440 hn        1 MOL     -0.005435
    172 H81         5.5490    3.7170   -0.8590 h1        1 MOL      0.096460
    173 H82         4.4350    4.3810    1.4230 hc        1 MOL      0.076398
    174 H83         4.0370    2.6160    1.5510 hc        1 MOL      0.076398
    175 H84         2.0780    3.6630    0.7120 hc        1 MOL     -0.025147
    176 H85         2.8800    2.9100   -0.7290 hc        1 MOL     -0.025147
    177 N15         7.9490    3.1930    0.0130 n         1 MOL     -0.337058
    178 C54         9.1970    3.0670    0.7060 c3        1 MOL     -0.146281
    179 H86         9.9910    3.5120    0.1060 h1        1 MOL      0.075089
    180 H87         9.1360    3.5820    1.6650 h1        1 MOL      0.075089
    181 H88         9.4160    2.0120    0.8730 h1        1 MOL      0.075089
    182 H89         8.0420    3.4240   -0.9550 hn        1 MOL      0.274047
    183 Ca1        -0.5680    5.6380   -0.1540 Ca        1 MOL      1.709880
    184 O25        -2.9780    5.2800   -1.2720 oh        1 MOL     -0.821925
    185 H90        -3.6750    4.6510   -1.0800 ho        1 MOL      0.408273
    186 H91        -3.4320    6.1140   -1.3930 ho        1 MOL      0.408273
    187 O26         0.9500    5.6050    2.0260 oh        1 MOL     -0.821925
    188 H92         0.9740    5.0190    2.7760 ho        1 MOL      0.408273
    189 H93         1.5700    6.3040    2.2510 ho        1 MOL      0.408273
    190 O27        -0.6960    6.0880   -2.7130 oh        1 MOL     -0.821925
    191 H94        -0.8980    5.4450   -3.3900 ho        1 MOL      0.408273
    192 H95        -1.0580    6.9060   -3.0500 ho        1 MOL      0.408273
    193 O28         0.9480    8.0190   -0.1500 oh        1 MOL     -0.821925
    194 H96         0.7120    8.9180    0.1070 ho        1 MOL      0.408273
    195 H97         1.4090    8.1260   -0.9780 ho        1 MOL      0.408273
    196 O29        -2.0240    7.9300   -0.5470 oh        1 MOL     -0.821925
    197 H98        -1.9330    8.8800   -0.6300 ho        1 MOL      0.408273
    198 H99        -2.8990    7.7410   -0.8710 ho        1 MOL      0.408273
@<TRIPOS>BOND
     1    1    2 1   
     2    1    4 1   
     3    1    5 1   
     4    1    6 1   
     5    2    3 2   
     6    2    7 1   
     7    7    8 1   
     8    7   15 1   
     9    8    9 1   
    10    8   11 1   
    11    8   16 1   
    12    9   10 2   
    13    9   19 1   
    14   11   12 1   
    15   11   17 1   
    16   11   18 1   
    17   12   13 1   
    18   12   14 1   
    19   19   20 1   
    20   19   28 1   
    21   20   21 1   
    22   20   23 1   
    23   20   29 1   
    24   21   22 2   
    25   21   41 1   
    26   23   24 1   
    27   23   30 1   
    28   23   31 1   
    29   24   25 1   
    30   24   32 1   
    31   24   33 1   
    32   25   26 1   
    33   25   34 1   
    34   25   35 1   
    35   26   27 1   
    36   26   36 1   
    37   26   37 1   
    38   27   38 1   
    39   27   39 1   
    40   27   40 1   
    41   41   42 1   
    42   41   49 1   
    43   42   43 1   
    44   42   45 1   
    45   42   50 1   
    46   43   44 2   
    47   43   53 1   
    48   45   46 1   
    49   45   51 1   
    50   45   52 1   
    51   46   47 1   
    52   46   48 1   
    53   53   54 1   
    54   53   57 1   
    55   54   55 1   
    56   54   58 1   
    57   54   59 1   
    58   55   56 2   
    59   55   60 1   
    60   60   61 1   
    61   60   68 1   
    62   61   62 1   
    63   61   64 1   
    64   61   69 1   
    65   62   63 2   
    66   62   72 1   
    67   64   65 1   
    68   64   70 1   
    69   64   71 1   
    70   65   66 1   
    71   65   67 1   
    72   72   73 1   
    73   72   76 1   
    74   73   74 1   
    75   73   77 1   
    76   73   78 1   
    77   74   75 2   
    78   74   79 1   
    79   79   80 1   
    80   79   86 1   
    81   80   81 1   
    82   80   83 1   
    83   80   87 1   
    84   81   82 2   
    85   81   93 1   
    86   83   84 1   
    87   83   85 1   
    88   83   88 1   
    89   84   90 1   
    90   84   91 1   
    91   84   92 1   
    92   85   89 1   
    93   93   94 1   
    94   93  101 1   
    95   94   95 1   
    96   94   97 1   
    97   94  102 1   
    98   95   96 2   
    99   95  112 1   
   100   97   98 1   
   101   97   99 1   
   102   97  103 1   
   103   98  100 1   
   104   98  104 1   
   105   98  105 1   
   106   99  106 1   
   107   99  107 1   
   108   99  108 1   
   109  100  109 1   
   110  100  110 1   
   111  100  111 1   
   112  112  113 1   
   113  112  119 1   
   114  113  114 1   
   115  113  116 1   
   116  113  120 1   
   117  114  115 2   
   118  114  126 1   
   119  116  117 1   
   120  116  118 1   
   121  116  121 1   
   122  117  123 1   
   123  117  124 1   
   124  117  125 1   
   125  118  122 1   
   126  126  127 1   
   127  126  133 1   
   128  127  128 1   
   129  127  130 1   
   130  127  134 1   
   131  128  129 2   
   132  128  140 1   
   133  130  131 1   
   134  130  132 1   
   135  130  135 1   
   136  131  137 1   
   137  131  138 1   
   138  131  139 1   
   139  132  136 1   
   140  140  141 1   
   141  140  149 1   
   142  141  142 1   
   143  141  144 1   
   144  141  150 1   
   145  142  143 2   
   146  142  162 1   
   147  144  145 1   
   148  144  151 1   
   149  144  152 1   
   150  145  146 1   
   151  145  153 1   
   152  145  154 1   
   153  146  147 1   
   154  146  155 1   
   155  146  156 1   
   156  147  148 1   
   157  147  157 1   
   158  147  158 1   
   159  148  159 1   
   160  148  160 1   
   161  148  161 1   
   162  162  163 1   
   163  162  171 1   
   164  163  164 1   
   165  163  166 1   
   166  163  172 1   
   167  164  165 2   
   168  164  177 1   
   169  166  167 1   
   170  166  173 1   
   171  166  174 1   
   172  167  168 1   
   173  167  175 1   
   174  167  176 1   
   175  168  169 1   
   176  168  170 1   
   177  177  178 1   
   178  177  182 1   
   179  178  179 1   
   180  178  180 1   
   181  178  181 1   
   182  184  185 1   
   183  184  186 1   
   184  187  188 1   
   185  187  189 1   
   186  190  191 1   
   187  190  192 1   
   188  193  194 1   
   189  193  195 1   
   190  196  197 1   
   191  196  198 1   
@<TRIPOS>SUBSTRUCTURE
     1 MOL         1 TEMP              0 ****  ****    0 ROOT
