@<TRIPOS>MOLECULE
MOL
  189   185     1     0     0
SMALL
resp


@<TRIPOS>ATOM
      1 C1          4.8370    3.9630   -3.6060 c3        1 MOL     -0.261059
      2 C2          5.4840    3.1180   -2.4670 c         1 MOL      0.785146
      3 O1          4.9420    2.9050   -1.4180 o         1 MOL     -0.684892
      4 H1          5.1110    3.5410   -4.5720 hc        1 MOL      0.053868
      5 H2          3.7520    3.9490   -3.4980 hc        1 MOL      0.053868
      6 H3          5.1950    4.9910   -3.5450 hc        1 MOL      0.053868
      7 N1          6.5920    2.5150   -2.9050 n         1 MOL     -0.675924
      8 C3          7.2970    1.2980   -2.3280 c3        1 MOL      0.210023
      9 C4          6.3650    0.1790   -1.8790 c         1 MOL      0.334063
     10 O2          5.9270    0.1200   -0.7350 o         1 MOL     -0.367704
     11 C5          8.4950    1.6510   -1.3330 c3        1 MOL     -0.296189
     12 C6          8.2310    2.4700   -0.0390 c         1 MOL      0.692665
     13 O3          7.0800    2.8940    0.3010 o         1 MOL     -0.676621
     14 O4          9.2200    2.6220    0.6980 o         1 MOL     -0.676621
     15 H4          7.0420    2.8390   -3.7430 hn        1 MOL      0.348571
     16 H5          7.8370    0.9060   -3.1870 h1        1 MOL     -0.007280
     17 H6          9.2420    2.2060   -1.8940 hc        1 MOL      0.074660
     18 H7          8.9420    0.7240   -0.9590 hc        1 MOL      0.074660
     19 N2          5.8560   -0.5430   -2.8260 n         1 MOL     -0.405409
     20 C7          5.0700   -1.7900   -2.8290 c3        1 MOL     -0.007053
     21 C8          5.5960   -2.9290   -1.9490 c         1 MOL      0.433543
     22 O5          5.7270   -4.0560   -2.4630 o         1 MOL     -0.575794
     23 C9          3.5930   -1.5450   -2.4690 c3        1 MOL      0.373453
     24 C10         2.7440   -2.8780   -2.6920 c3        1 MOL     -0.052338
     25 C11         3.1950   -0.3180   -3.2210 c3        1 MOL     -0.355425
     26 C12         2.4550   -3.3070   -4.0670 c3        1 MOL     -0.244569
     27 H8          6.0510   -0.2970   -3.7880 hn        1 MOL      0.272839
     28 H9          5.1510   -2.1900   -3.8460 h1        1 MOL      0.062661
     29 H10         3.6060   -1.2850   -1.4070 hc        1 MOL     -0.262312
     30 H11         1.7420   -2.7590   -2.2900 hc        1 MOL      0.058975
     31 H12         3.1570   -3.6880   -2.0900 hc        1 MOL      0.058975
     32 H13         2.1050   -0.2240   -3.1840 hc        1 MOL      0.070488
     33 H14         3.4970    0.5590   -2.6410 hc        1 MOL      0.070488
     34 H15         3.5380   -0.3840   -4.2550 hc        1 MOL      0.070488
     35 H16         1.6170   -2.7270   -4.4530 hc        1 MOL      0.042936
     36 H17         3.3760   -3.1890   -4.6310 hc        1 MOL      0.042936
     37 H18         2.0430   -4.3210   -4.1110 hc        1 MOL      0.042936
     38 N3          5.8630   -2.7160   -0.6630 n         1 MOL     -0.047032
     39 C13         6.4370   -3.7810    0.2180 c3        1 MOL     -0.169157
     40 C14         5.6250   -5.0310    0.6360 c         1 MOL      0.694526
     41 O6          6.1700   -6.1430    0.7580 o         1 MOL     -0.595906
     42 C15         7.1120   -3.3110    1.5030 c3        1 MOL     -0.305677
     43 C16         8.3120   -2.3080    1.2850 c         1 MOL      0.706949
     44 O7          9.3230   -2.5090    0.5870 o         1 MOL     -0.671126
     45 O8          8.1750   -1.3240    1.9840 o         1 MOL     -0.671126
     46 H19         5.5400   -1.8520   -0.2430 hn        1 MOL      0.145884
     47 H20         7.3270   -4.1660   -0.2820 h1        1 MOL      0.078944
     48 H21         7.5120   -4.2080    1.9650 hc        1 MOL      0.096435
     49 H22         6.4150   -2.8100    2.1750 hc        1 MOL      0.096435
     50 N4          4.3230   -4.9960    0.8920 n         1 MOL     -0.606619
     51 C17         3.5840   -3.7550    1.3660 c3        1 MOL      0.169508
     52 C18         3.9570   -3.2440    2.8250 c         1 MOL      0.384090
     53 O9          4.5040   -4.0360    3.5600 o         1 MOL     -0.512080
     54 H23         3.8030   -5.8530    0.9850 hn        1 MOL      0.308577
     55 H24         2.5210   -3.9590    1.4160 h1        1 MOL      0.050569
     56 H25         3.6610   -3.0210    0.5570 h1        1 MOL      0.050569
     57 N5          3.6110   -2.0300    3.2340 n         1 MOL     -0.264187
     58 C19         2.3270   -1.3920    2.7860 c3        1 MOL     -0.024568
     59 C20         2.5190   -0.8890    1.3110 c         1 MOL     -0.193717
     60 O10         3.6000   -0.5400    0.8690 o         1 MOL     -0.171858
     61 C21         1.9850   -0.2820    3.8080 c3        1 MOL     -0.026072
     62 C22         2.9850    0.8120    4.0050 c         1 MOL      0.629854
     63 O11         3.5960    0.9160    5.0910 o         1 MOL     -0.659157
     64 O12         3.1890    1.4870    2.9470 o         1 MOL     -0.659157
     65 H26         3.9130   -1.7610    4.1590 hn        1 MOL      0.256934
     66 H27         1.5160   -2.1210    2.7370 h1        1 MOL      0.054589
     67 H28         1.6540   -0.7210    4.7490 hc        1 MOL      0.027304
     68 H29         1.0220    0.1520    3.5280 hc        1 MOL      0.027304
     69 N6          1.4610   -0.6780    0.5180 n         1 MOL      0.088237
     70 C23         0.0450   -0.8620    0.8300 c3        1 MOL     -0.117611
     71 C24        -0.4110   -2.3220    0.5650 c         1 MOL      0.572004
     72 O13         0.2750   -3.0160   -0.1570 o         1 MOL     -0.565931
     73 H30         1.6940   -0.1930   -0.3480 hn        1 MOL      0.208339
     74 H31        -0.4960   -0.1760    0.1760 h1        1 MOL      0.079377
     75 H32        -0.0580   -0.6630    1.8920 h1        1 MOL      0.079377
     76 N7         -1.5890   -2.7500    0.9930 n         1 MOL     -0.376287
     77 C25        -2.2510   -4.0810    0.6610 c3        1 MOL      0.004060
     78 C26        -2.9690   -4.1770   -0.6890 c         1 MOL      0.350474
     79 O14        -3.1440   -5.2750   -1.2950 o         1 MOL     -0.514643
     80 C27        -3.1200   -4.6900    1.8300 c3        1 MOL      0.092978
     81 C28        -4.2820   -3.9260    2.3640 c3        1 MOL     -0.238089
     82 C29        -5.3280   -3.5110    1.4100 c         1 MOL      0.497624
     83 N8         -6.2430   -4.3720    1.0770 n         1 MOL     -0.664265
     84 O15        -5.2450   -2.4130    0.8490 o         1 MOL     -0.569716
     85 H33        -2.0660   -2.1890    1.6840 hn        1 MOL      0.251188
     86 H34        -1.3890   -4.7420    0.5590 h1        1 MOL      0.110976
     87 H35        -2.3940   -4.8090    2.6390 hc        1 MOL      0.001364
     88 H36        -3.5020   -5.6460    1.4560 hc        1 MOL      0.001364
     89 H37        -3.8180   -3.1070    2.9000 hc        1 MOL      0.089880
     90 H38        -4.7740   -4.5390    3.1270 hc        1 MOL      0.089880
     91 H39        -6.0910   -5.2520    1.5410 hn        1 MOL      0.351809
     92 H40        -6.9200   -4.1840    0.3580 hn        1 MOL      0.351809
     93 N9         -3.3280   -3.0100   -1.2990 n         1 MOL     -0.006455
     94 C30        -3.7910   -2.9660   -2.7470 c3        1 MOL     -0.492255
     95 C31        -5.0390   -2.0930   -2.9550 c         1 MOL      0.630740
     96 O16        -5.4100   -1.8760   -4.0810 o         1 MOL     -0.562031
     97 C32        -2.6460   -2.4400   -3.6140 c3        1 MOL      0.480190
     98 C33        -1.5410   -3.4990   -3.6650 c3        1 MOL     -0.319151
     99 C34        -2.1160   -1.0790   -3.2470 c3        1 MOL     -0.319151
    100 H41        -3.1740   -2.0750   -0.9360 hn        1 MOL      0.139741
    101 H42        -3.9560   -3.9820   -3.0930 h1        1 MOL      0.185743
    102 H43        -2.9760   -2.3150   -4.6420 hc        1 MOL     -0.058778
    103 H44        -1.1090   -3.6760   -2.6760 hc        1 MOL      0.073643
    104 H45        -1.9670   -4.4180   -4.0490 hc        1 MOL      0.073643
    105 H46        -0.7470   -3.1860   -4.3350 hc        1 MOL      0.073643
    106 H47        -1.6390   -1.2030   -2.2690 hc        1 MOL      0.073643
    107 H48        -1.4180   -0.7600   -4.0200 hc        1 MOL      0.073643
    108 H49        -2.9760   -0.4050   -3.2880 hc        1 MOL      0.073643
    109 N10        -5.7820   -1.7210   -1.9050 n         1 MOL     -0.436050
    110 C35        -7.1140   -1.0390   -1.9420 c3        1 MOL      0.051132
    111 C36        -7.0360    0.3830   -1.3280 c         1 MOL      0.634484
    112 O17        -7.9740    1.1560   -1.4850 o         1 MOL     -0.576536
    113 C37        -8.1430   -1.8290   -1.1410 c3        1 MOL     -0.189431
    114 C38        -8.5250   -3.1930   -1.6480 c         1 MOL      0.673652
    115 N11        -9.0520   -3.2920   -2.7940 n         1 MOL     -0.744133
    116 O18        -8.3370   -4.2020   -0.9990 o         1 MOL     -0.587553
    117 H50        -5.5790   -1.9910   -0.9500 hn        1 MOL      0.327413
    118 H51        -7.5440   -0.8910   -2.9300 h1        1 MOL      0.051061
    119 H52        -9.0700   -1.2510   -1.1810 hc        1 MOL      0.063104
    120 H53        -7.7530   -1.9190   -0.1280 hc        1 MOL      0.063104
    121 H54        -9.0620   -2.5280   -3.4560 hn        1 MOL      0.357602
    122 H55        -8.9820   -4.2270   -3.1810 hn        1 MOL      0.357602
    123 N12        -5.9130    0.8640   -0.7150 n         1 MOL     -0.628427
    124 C39        -5.9260    2.0890    0.1780 c3        1 MOL      0.469471
    125 C40        -4.5790    2.8420    0.1540 c         1 MOL      0.206685
    126 O19        -3.5520    2.1560   -0.1680 o         1 MOL     -0.434616
    127 C41        -6.1700    1.6200    1.6390 c3        1 MOL     -0.095819
    128 C42        -7.5730    0.9730    1.9140 ca        1 MOL     -0.046203
    129 C43        -7.6190   -0.4240    2.2380 ca        1 MOL     -0.117061
    130 C44        -8.7700    1.7450    1.8080 ca        1 MOL     -0.117061
    131 C45        -8.8630   -1.0650    2.3000 ca        1 MOL     -0.217244
    132 C46        -9.9670    1.1080    2.1160 ca        1 MOL     -0.217244
    133 C47        -9.9850   -0.2610    2.3310 ca        1 MOL      0.310509
    134 O20       -11.1700   -0.8780    2.5890 oh        1 MOL     -0.543325
    135 H56        -5.1440    0.2150   -0.5840 hn        1 MOL      0.271833
    136 H57        -6.7140    2.7670   -0.1500 h1        1 MOL     -0.016900
    137 H58        -6.0800    2.5100    2.2600 hc        1 MOL      0.063520
    138 H59        -5.4500    0.8310    1.8790 hc        1 MOL      0.063520
    139 H60        -6.7360   -1.0450    2.2900 ha        1 MOL      0.127798
    140 H61        -8.6830    2.7990    1.6160 ha        1 MOL      0.127798
    141 H62        -8.9320   -2.1300    2.4570 ha        1 MOL      0.127394
    142 H63       -10.8720    1.6880    2.0750 ha        1 MOL      0.127394
    143 H64       -11.1380   -1.8400    2.6060 ho        1 MOL      0.374953
    144 N13        -4.5700    4.1090    0.6020 n         1 MOL     -0.389560
    145 C48        -3.3740    4.8590    1.0280 c3        1 MOL      0.028874
    146 C49        -2.4210    5.2380   -0.0550 c         1 MOL      0.608381
    147 O21        -2.0130    6.4000   -0.0800 o         1 MOL     -0.581269
    148 C50        -2.6600    4.1070    2.0770 c3        1 MOL      0.093212
    149 C51        -3.4960    3.9480    3.3490 c3        1 MOL     -0.332492
    150 C52        -2.6870    3.5630    4.5770 c         1 MOL      0.744720
    151 O22        -2.0560    4.4220    5.1950 o         1 MOL     -0.733833
    152 O23        -2.6770    2.3560    4.9730 o         1 MOL     -0.733833
    153 H65        -5.3940    4.6880    0.6010 hn        1 MOL      0.284864
    154 H66        -3.7430    5.7070    1.6140 h1        1 MOL      0.047606
    155 H67        -1.8140    4.6810    2.4320 hc        1 MOL      0.071273
    156 H68        -2.3130    3.1360    1.7020 hc        1 MOL      0.071273
    157 H69        -4.3270    3.2390    3.3350 hc        1 MOL      0.027043
    158 H70        -4.1340    4.8220    3.5160 hc        1 MOL      0.027043
    159 N14        -2.1230    4.3760   -1.0430 n         1 MOL     -0.714590
    160 C53        -0.8980    4.5180   -1.9150 c3        1 MOL     -0.000874
    161 C54        -1.0710    5.4720   -3.1350 c         1 MOL      0.478811
    162 O24        -0.1580    5.6920   -3.8920 o         1 MOL     -0.534454
    163 C55        -0.2770    3.1390   -2.3010 c3        1 MOL     -0.389717
    164 C56         0.0470    2.3100   -1.0530 c3        1 MOL      0.378584
    165 C57         1.2600    2.8650   -0.2960 c         1 MOL      0.666224
    166 O25         2.2830    2.1920   -0.1090 o         1 MOL     -0.676304
    167 O26         1.0530    3.9130    0.3920 o         1 MOL     -0.676304
    168 H71        -2.6050    3.5030   -0.9540 hn        1 MOL      0.392743
    169 H72        -0.1820    5.0330   -1.2780 h1        1 MOL      0.171793
    170 H73         0.6640    3.3930   -2.8000 hc        1 MOL      0.115717
    171 H74        -0.9960    2.6530   -2.9620 hc        1 MOL      0.115717
    172 H75         0.3320    1.2890   -1.3130 hc        1 MOL     -0.138244
    173 H76        -0.8220    2.1800   -0.4080 hc        1 MOL     -0.138244
    174 N15        -2.2750    6.0630   -3.2320 n         1 MOL     -0.178579
    175 C58        -2.8380    6.9410   -4.2520 c3        1 MOL     -0.225936
    176 H77        -2.5970    6.5510   -5.2410 h1        1 MOL      0.084964
    177 H78        -3.9210    6.9880   -4.1350 h1        1 MOL      0.084964
    178 H79        -2.4170    7.9410   -4.1450 h1        1 MOL      0.084964
    179 H80        -2.9330    5.8460   -2.4960 hn        1 MOL      0.225909
    180 Ca1         4.7290    1.8540    0.8930 Ca        1 MOL      1.661489
    181 O27         5.6440    2.9470    3.2390 oh        1 MOL     -0.801157
    182 H81         5.4210    3.8610    3.4410 ho        1 MOL      0.378419
    183 H82         5.0830    2.4290    3.8000 ho        1 MOL      0.378419
    184 O28         5.9430    0.0940    2.4540 oh        1 MOL     -0.801157
    185 H83         6.8200   -0.2720    2.3910 ho        1 MOL      0.378419
    186 H84         5.3660   -0.6670    2.5520 ho        1 MOL      0.378419
    187 O29         3.6930    4.4670    1.3870 oh        1 MOL     -0.801157
    188 H85         3.5610    5.3820    1.6550 ho        1 MOL      0.378419
    189 H86         2.9030    4.2430    0.9020 ho        1 MOL      0.378419
@<TRIPOS>BOND
     1    1    2 1   
     2    1    4 1   
     3    1    5 1   
     4    1    6 1   
     5    2    3 2   
     6    2    7 1   
     7    7    8 1   
     8    7   15 1   
     9    8    9 1   
    10    8   11 1   
    11    8   16 1   
    12    9   10 2   
    13    9   19 1   
    14   11   12 1   
    15   11   17 1   
    16   11   18 1   
    17   12   13 1   
    18   12   14 1   
    19   19   20 1   
    20   19   27 1   
    21   20   21 1   
    22   20   23 1   
    23   20   28 1   
    24   21   22 2   
    25   21   38 1   
    26   23   24 1   
    27   23   25 1   
    28   23   29 1   
    29   24   26 1   
    30   24   30 1   
    31   24   31 1   
    32   25   32 1   
    33   25   33 1   
    34   25   34 1   
    35   26   35 1   
    36   26   36 1   
    37   26   37 1   
    38   38   39 1   
    39   38   46 1   
    40   39   40 1   
    41   39   42 1   
    42   39   47 1   
    43   40   41 2   
    44   40   50 1   
    45   42   43 1   
    46   42   48 1   
    47   42   49 1   
    48   43   44 1   
    49   43   45 1   
    50   50   51 1   
    51   50   54 1   
    52   51   52 1   
    53   51   55 1   
    54   51   56 1   
    55   52   53 2   
    56   52   57 1   
    57   57   58 1   
    58   57   65 1   
    59   58   59 1   
    60   58   61 1   
    61   58   66 1   
    62   59   60 2   
    63   59   69 1   
    64   61   62 1   
    65   61   67 1   
    66   61   68 1   
    67   62   63 1   
    68   62   64 1   
    69   69   70 1   
    70   69   73 1   
    71   70   71 1   
    72   70   74 1   
    73   70   75 1   
    74   71   72 2   
    75   71   76 1   
    76   76   77 1   
    77   76   85 1   
    78   77   78 1   
    79   77   80 1   
    80   77   86 1   
    81   78   79 2   
    82   78   93 1   
    83   80   81 1   
    84   80   87 1   
    85   80   88 1   
    86   81   82 1   
    87   81   89 1   
    88   81   90 1   
    89   82   83 1   
    90   82   84 2   
    91   83   91 1   
    92   83   92 1   
    93   93   94 1   
    94   93  100 1   
    95   94   95 1   
    96   94   97 1   
    97   94  101 1   
    98   95   96 2   
    99   95  109 1   
   100   97   98 1   
   101   97   99 1   
   102   97  102 1   
   103   98  103 1   
   104   98  104 1   
   105   98  105 1   
   106   99  106 1   
   107   99  107 1   
   108   99  108 1   
   109  109  110 1   
   110  109  117 1   
   111  110  111 1   
   112  110  113 1   
   113  110  118 1   
   114  111  112 2   
   115  111  123 1   
   116  113  114 1   
   117  113  119 1   
   118  113  120 1   
   119  114  115 1   
   120  114  116 2   
   121  115  121 1   
   122  115  122 1   
   123  123  124 1   
   124  123  135 1   
   125  124  125 1   
   126  124  127 1   
   127  124  136 1   
   128  125  126 2   
   129  125  144 1   
   130  127  128 1   
   131  127  137 1   
   132  127  138 1   
   133  128  129 ar  
   134  128  130 ar  
   135  129  131 ar  
   136  129  139 1   
   137  130  132 ar  
   138  130  140 1   
   139  131  133 ar  
   140  131  141 1   
   141  132  133 ar  
   142  132  142 1   
   143  133  134 1   
   144  134  143 1   
   145  144  145 1   
   146  144  153 1   
   147  145  146 1   
   148  145  148 1   
   149  145  154 1   
   150  146  147 2   
   151  146  159 1   
   152  148  149 1   
   153  148  155 1   
   154  148  156 1   
   155  149  150 1   
   156  149  157 1   
   157  149  158 1   
   158  150  151 1   
   159  150  152 1   
   160  159  160 1   
   161  159  168 1   
   162  160  161 1   
   163  160  163 1   
   164  160  169 1   
   165  161  162 2   
   166  161  174 1   
   167  163  164 1   
   168  163  170 1   
   169  163  171 1   
   170  164  165 1   
   171  164  172 1   
   172  164  173 1   
   173  165  166 1   
   174  165  167 1   
   175  174  175 1   
   176  174  179 1   
   177  175  176 1   
   178  175  177 1   
   179  175  178 1   
   180  181  182 1   
   181  181  183 1   
   182  184  185 1   
   183  184  186 1   
   184  187  188 1   
   185  187  189 1   
@<TRIPOS>SUBSTRUCTURE
     1 MOL         1 TEMP              0 ****  ****    0 ROOT
