@<TRIPOS>MOLECULE
MOL
  201   193     1     0     0
SMALL
resp


@<TRIPOS>ATOM
      1 C1         -4.1600   -4.2480    2.1120 c3        1 MOL     -0.307980
      2 C2         -2.9740   -4.2540    1.1340 c         1 MOL      0.665597
      3 O1         -2.2420   -3.2300    1.0950 o         1 MOL     -0.495472
      4 H1         -4.9070   -3.5310    1.7700 hc        1 MOL      0.047445
      5 H2         -4.6040   -5.2420    2.1520 hc        1 MOL      0.047445
      6 H3         -3.8120   -3.9630    3.1050 hc        1 MOL      0.047445
      7 N1         -2.7470   -5.2690    0.2450 n         1 MOL     -0.494362
      8 C3         -1.6760   -5.1890   -0.7510 c3        1 MOL     -0.207458
      9 C4         -0.2460   -4.9730   -0.1620 c         1 MOL      0.671508
     10 O2          0.6800   -4.5270   -0.8340 o         1 MOL     -0.539883
     11 C5         -1.9810   -4.1590   -1.8480 c3        1 MOL     -0.212707
     12 C6         -3.3970   -4.1960   -2.4140 c         1 MOL      0.808406
     13 O3         -3.6100   -5.0070   -3.3530 o         1 MOL     -0.705939
     14 O4         -4.2510   -3.4340   -1.9500 o         1 MOL     -0.705939
     15 H4         -3.4730   -5.9570    0.1420 hn        1 MOL      0.298792
     16 H5         -1.7230   -6.1970   -1.1590 h1        1 MOL      0.144788
     17 H6         -1.2480   -4.2290   -2.6500 hc        1 MOL      0.092677
     18 H7         -1.7320   -3.1880   -1.4340 hc        1 MOL      0.092677
     19 N2         -0.0730   -5.1710    1.1230 n         1 MOL     -0.504516
     20 C7          1.2030   -4.8620    1.8490 c3        1 MOL     -0.032290
     21 C8          2.3770   -5.7660    1.3240 c         1 MOL      0.407196
     22 O5          2.1910   -6.9960    1.1320 o         1 MOL     -0.535679
     23 C9          1.0350   -5.0800    3.3610 c3        1 MOL      0.105181
     24 C10         0.4670   -6.4540    3.8950 c3        1 MOL      0.158752
     25 C11         0.1130   -3.8610    3.8660 c3        1 MOL     -0.320996
     26 C12         0.5780   -6.5140    5.4270 c3        1 MOL     -0.250156
     27 H8         -0.8530   -5.5910    1.6110 hn        1 MOL      0.253831
     28 H9          1.5080   -3.8450    1.5960 h1        1 MOL      0.053002
     29 H10         1.9920   -4.8260    3.8110 hc        1 MOL      0.063200
     30 H11         0.9200   -7.2970    3.3730 hc        1 MOL     -0.012876
     31 H12        -0.5910   -6.5550    3.6350 hc        1 MOL     -0.012876
     32 H13         0.3310   -3.7280    4.9200 hc        1 MOL      0.088960
     33 H14         0.4100   -2.9480    3.3500 hc        1 MOL      0.088960
     34 H15        -0.9530   -4.0450    3.7880 hc        1 MOL      0.088960
     35 H16         0.3150   -7.5180    5.7750 hc        1 MOL      0.044580
     36 H17         1.5980   -6.2220    5.6580 hc        1 MOL      0.044580
     37 H18        -0.1140   -5.8800    5.9930 hc        1 MOL      0.044580
     38 N3          3.6270   -5.2760    1.2200 n         1 MOL     -0.363455
     39 C13         4.0150   -3.8600    1.2490 c3        1 MOL     -0.025557
     40 C14         4.0810   -3.3240   -0.1720 c         1 MOL      0.551305
     41 O6          3.9780   -2.1200   -0.4490 o         1 MOL     -0.555577
     42 C15         5.4210   -3.8220    1.9790 c3        1 MOL     -0.303129
     43 C16         6.5930   -4.6090    1.3490 c         1 MOL      0.747199
     44 O7          6.3850   -5.6770    0.6960 o         1 MOL     -0.701920
     45 O8          7.7360   -4.1270    1.4690 o         1 MOL     -0.701920
     46 H19         4.3400   -5.8960    0.8730 hn        1 MOL      0.241651
     47 H20         3.3520   -3.1590    1.7540 h1        1 MOL      0.091380
     48 H21         5.2500   -4.1520    2.9990 hc        1 MOL      0.066221
     49 H22         5.8050   -2.8020    2.0260 hc        1 MOL      0.066221
     50 N4          4.3600   -4.2290   -1.1380 n         1 MOL     -0.229376
     51 C17         4.4370   -3.9890   -2.6000 c3        1 MOL     -0.254198
     52 C18         5.7420   -3.2410   -2.9630 c         1 MOL      0.496290
     53 O9          6.8050   -3.9290   -2.9210 o         1 MOL     -0.553656
     54 H23         4.3310   -5.1910   -0.8340 hn        1 MOL      0.290004
     55 H24         3.5860   -3.4400   -3.0090 h1        1 MOL      0.112991
     56 H25         4.4780   -4.9530   -3.1030 h1        1 MOL      0.112991
     57 N5          5.6840   -1.9690   -3.2970 n         1 MOL     -0.332566
     58 C19         6.7480   -1.0520   -3.6920 c3        1 MOL     -0.000341
     59 C20         7.6790   -0.5620   -2.5230 c         1 MOL      0.408594
     60 O10         8.6670    0.1640   -2.7060 o         1 MOL     -0.530634
     61 C21         6.1970    0.2670   -4.2550 c3        1 MOL     -0.143594
     62 C22         5.0380    0.8250   -3.5660 c         1 MOL      0.683961
     63 O11         3.8930    0.5090   -3.9870 o         1 MOL     -0.674143
     64 O12         5.2510    1.4110   -2.4600 o         1 MOL     -0.674143
     65 H26         4.7590   -1.6280   -3.5200 hn        1 MOL      0.271953
     66 H27         7.3870   -1.4910   -4.4490 h1        1 MOL      0.089256
     67 H28         5.9390    0.0680   -5.2890 hc        1 MOL      0.014624
     68 H29         7.0660    0.9190   -4.3550 hc        1 MOL      0.014624
     69 N6          7.3170   -0.9510   -1.2570 n         1 MOL     -0.255767
     70 C23         8.0840   -0.6480    0.0210 c3        1 MOL     -0.201966
     71 C24         8.1580    0.8370    0.4580 c         1 MOL      0.432554
     72 O13         8.7740    1.2540    1.4690 o         1 MOL     -0.579838
     73 H30         6.6180   -1.6570   -1.0940 hn        1 MOL      0.300093
     74 H31         9.1290   -0.9320   -0.0670 h1        1 MOL      0.133998
     75 H32         7.5770   -1.2800    0.7560 h1        1 MOL      0.133998
     76 N7          7.5410    1.7250   -0.3670 n         1 MOL     -0.000860
     77 C25         7.4070    3.1830   -0.1800 c3        1 MOL     -0.196100
     78 C26         6.6420    3.5540    1.0720 c         1 MOL      0.466763
     79 O14         6.4810    4.7180    1.4300 o         1 MOL     -0.511928
     80 C27         8.7280    3.9460   -0.2650 c3        1 MOL      0.165049
     81 C28         9.3550    3.9140   -1.6420 c3        1 MOL     -0.125276
     82 C29        10.5100    4.8930   -1.9030 c         1 MOL      0.569157
     83 N8         11.6920    4.4150   -2.2060 n         1 MOL     -0.753137
     84 O15        10.3230    6.1240   -1.8730 o         1 MOL     -0.568122
     85 H33         7.0380    1.3460   -1.1570 hn        1 MOL      0.081698
     86 H34         6.8850    3.5430   -1.0700 h1        1 MOL      0.158347
     87 H35         9.4980    3.6420    0.4510 hc        1 MOL     -0.016229
     88 H36         8.5980    5.0270   -0.1170 hc        1 MOL     -0.016229
     89 H37         8.6690    4.0540   -2.4720 hc        1 MOL      0.051803
     90 H38         9.7160    2.8920   -1.8180 hc        1 MOL      0.051803
     91 H39        11.8700    3.4260   -2.0800 hn        1 MOL      0.345994
     92 H40        12.4370    5.0930   -2.2840 hn        1 MOL      0.345994
     93 N9          6.0140    2.5680    1.7670 n         1 MOL     -0.165925
     94 C30         5.2720    2.8380    3.0250 c3        1 MOL     -0.284471
     95 C31         3.7460    2.8360    2.7120 c         1 MOL      0.686402
     96 O16         3.0200    3.6340    3.3100 o         1 MOL     -0.594488
     97 C32         5.5830    1.8160    4.1200 c3        1 MOL      0.288699
     98 C33         5.8480    0.3760    3.7110 c3        1 MOL     -0.336189
     99 C34         6.8680    2.3600    4.8340 c3        1 MOL     -0.336189
    100 H41         6.0980    1.6270    1.4150 hn        1 MOL      0.183415
    101 H42         5.4750    3.8760    3.3020 h1        1 MOL      0.145548
    102 H43         4.7860    1.8470    4.8700 hc        1 MOL     -0.021851
    103 H44         5.3630    0.2320    2.7450 hc        1 MOL      0.081483
    104 H45         6.8910    0.2020    3.4820 hc        1 MOL      0.081483
    105 H46         5.5090   -0.3440    4.4600 hc        1 MOL      0.081483
    106 H47         7.6290    2.5470    4.0690 hc        1 MOL      0.081483
    107 H48         6.7610    3.2830    5.3980 hc        1 MOL      0.081483
    108 H49         7.1540    1.5910    5.5520 hc        1 MOL      0.081483
    109 N10         3.2190    2.0330    1.7870 n         1 MOL     -0.541054
    110 C35         1.8560    1.6800    1.5630 c3        1 MOL      0.171550
    111 C36         1.2670    2.6750    0.4910 c         1 MOL      0.628280
    112 O17         2.0170    3.1330   -0.4290 o         1 MOL     -0.545335
    113 C37         1.7360    0.2000    1.0480 c3        1 MOL     -0.131910
    114 C38         0.3820   -0.3960    1.1880 c         1 MOL      0.531304
    115 N11         0.0920   -1.4080    0.4030 n         1 MOL     -0.458193
    116 O18        -0.4830    0.0850    1.9420 o         1 MOL     -0.574685
    117 H50         3.9280    1.4700    1.3380 hn        1 MOL      0.241241
    118 H51         1.2930    1.8170    2.4820 h1        1 MOL      0.016168
    119 H52         2.4800   -0.2840    1.6800 hc        1 MOL      0.072521
    120 H53         2.1180    0.1550    0.0200 hc        1 MOL      0.072521
    121 H54         0.8040   -1.7500   -0.2280 hn        1 MOL      0.267649
    122 H55        -0.7770   -1.8940    0.5410 hn        1 MOL      0.267649
    123 N12        -0.0130    2.9710    0.5080 n         1 MOL     -0.552425
    124 C39        -0.8250    3.8650   -0.4090 c3        1 MOL      0.064333
    125 C40        -2.2630    4.2200    0.1400 c         1 MOL      0.720593
    126 O19        -2.8290    3.3900    0.8500 o         1 MOL     -0.577107
    127 C41        -0.8840    3.3250   -1.8250 c3        1 MOL     -0.104276
    128 C42        -1.9060    2.1540   -2.0590 ca        1 MOL     -0.010658
    129 C43        -1.6330    0.8630   -1.5640 ca        1 MOL     -0.042085
    130 C44        -2.9970    2.4530   -2.8500 ca        1 MOL     -0.042085
    131 C45        -2.6640   -0.1690   -1.7380 ca        1 MOL     -0.538638
    132 C46        -3.9710    1.4490   -3.0590 ca        1 MOL     -0.538638
    133 C47        -3.8060    0.1670   -2.4520 ca        1 MOL      0.770733
    134 O20        -4.7600   -0.8170   -2.6120 oh        1 MOL     -0.715891
    135 H56        -0.5450    2.5560    1.2680 hn        1 MOL      0.295640
    136 H57        -0.3510    4.8520   -0.4700 h1        1 MOL      0.070808
    137 H58         0.0700    2.8840   -2.1080 hc        1 MOL      0.066685
    138 H59        -1.0310    4.0770   -2.5940 hc        1 MOL      0.066685
    139 H60        -0.6890    0.6030   -1.1000 ha        1 MOL      0.109905
    140 H61        -3.1310    3.3910   -3.3580 ha        1 MOL      0.109905
    141 H62        -2.4420   -1.1750   -1.4100 ha        1 MOL      0.234051
    142 H63        -4.8910    1.6720   -3.5760 ha        1 MOL      0.234051
    143 H64        -4.5550   -1.7050   -2.3020 ho        1 MOL      0.358253
    144 N13        -2.7630    5.4600   -0.2020 n         1 MOL     -0.822341
    145 C48        -4.1430    5.9820    0.1410 c3        1 MOL      0.533348
    146 C49        -5.0010    5.9590   -1.1380 c         1 MOL      0.444215
    147 O21        -4.8060    6.8570   -1.9780 o         1 MOL     -0.568715
    148 C50        -4.1550    7.2990    0.8100 c3        1 MOL     -0.171426
    149 C51        -5.4700    7.5710    1.4980 c3        1 MOL     -0.098120
    150 C52        -5.6600    8.9850    2.1030 c         1 MOL      0.645563
    151 O22        -5.7810    9.9670    1.3580 o         1 MOL     -0.658365
    152 O23        -5.9100    9.0080    3.3660 o         1 MOL     -0.658365
    153 H65        -2.2810    6.0650   -0.8490 hn        1 MOL      0.342408
    154 H66        -4.5530    5.3250    0.9010 h1        1 MOL     -0.055680
    155 H67        -4.0610    8.0560    0.0330 hc        1 MOL      0.032926
    156 H68        -3.3370    7.3780    1.5280 hc        1 MOL      0.032926
    157 H69        -5.5590    6.7820    2.2560 hc        1 MOL      0.032088
    158 H70        -6.2730    7.4900    0.7610 hc        1 MOL      0.032088
    159 N14        -5.8230    5.0030   -1.3260 n         1 MOL     -0.448438
    160 C53        -5.9790    3.7470   -0.5630 c3        1 MOL     -0.015512
    161 C54        -6.4440    3.9300    0.9040 c         1 MOL      0.540882
    162 O24        -7.2120    4.8430    1.2470 o         1 MOL     -0.563567
    163 C55        -6.9650    2.9210   -1.4400 c3        1 MOL     -0.042267
    164 C56        -7.2560    1.4920   -0.8510 c3        1 MOL     -0.001144
    165 C57        -8.0470    0.5700   -1.7970 c         1 MOL      0.629781
    166 O25        -8.5890    1.0190   -2.8090 o         1 MOL     -0.657960
    167 O26        -7.9330   -0.7140   -1.5160 o         1 MOL     -0.657960
    168 H71        -6.3720    5.1460   -2.1680 hn        1 MOL      0.284556
    169 H72        -5.0100    3.2320   -0.5930 h1        1 MOL      0.085103
    170 H73        -6.5220    2.7100   -2.4120 hc        1 MOL      0.037628
    171 H74        -7.9340    3.4200   -1.4340 hc        1 MOL      0.037628
    172 H75        -7.7650    1.5880    0.1140 hc        1 MOL     -0.057691
    173 H76        -6.2830    1.0520   -0.6560 hc        1 MOL     -0.057691
    174 N15        -5.9920    2.9750    1.6890 n         1 MOL     -0.180560
    175 C58        -6.4280    2.7060    3.1360 c3        1 MOL     -0.256255
    176 H77        -7.4860    2.9450    3.2470 h1        1 MOL      0.107294
    177 H78        -6.2660    1.6560    3.3760 h1        1 MOL      0.107294
    178 H79        -5.8430    3.3290    3.8140 h1        1 MOL      0.107294
    179 H80        -5.2590    2.4080    1.3050 hn        1 MOL      0.250325
    180 Ca1        -8.3770   -2.8620   -0.2230 Ca        1 MOL      1.671733
    181 O27        -9.1630   -5.6880   -0.0810 oh        1 MOL     -0.799706
    182 H81        -8.4160   -6.2030   -0.3950 ho        1 MOL      0.379802
    183 H82        -9.8910   -6.3150   -0.0600 ho        1 MOL      0.379802
    184 O28        -6.9570   -4.4560   -1.8550 oh        1 MOL     -0.799706
    185 H83        -6.0260   -4.2150   -1.9040 ho        1 MOL      0.379802
    186 H84        -7.0140   -5.2790   -2.3540 ho        1 MOL      0.379802
    187 O29        -8.2740   -0.9280    1.5630 oh        1 MOL     -0.799706
    188 H85        -7.5410   -0.3250    1.6940 ho        1 MOL      0.379802
    189 H86        -9.0390   -0.4400    1.8590 ho        1 MOL      0.379802
    190 O30        -5.6910   -2.2160   -0.2380 oh        1 MOL     -0.799706
    191 H87        -5.1030   -2.8200   -0.6900 ho        1 MOL      0.379802
    192 H88        -5.8360   -1.5010   -0.8660 ho        1 MOL      0.379802
    193 O31       -10.7360   -1.2660   -0.0960 oh        1 MOL     -0.799706
    194 H89       -10.9620   -0.9570   -0.9740 ho        1 MOL      0.379802
    195 H90       -10.8260   -0.5010    0.4680 ho        1 MOL      0.379802
    196 O32       -10.1710   -3.4720    1.7360 oh        1 MOL     -0.799706
    197 H91        -9.8720   -4.2830    2.1460 ho        1 MOL      0.379802
    198 H92       -10.6930   -3.0410    2.4210 ho        1 MOL      0.379802
    199 O33        -9.8210   -3.3470   -2.3870 oh        1 MOL     -0.799706
    200 H93       -10.2570   -4.1380   -2.7110 ho        1 MOL      0.379802
    201 H94        -9.7730   -2.7770   -3.1590 ho        1 MOL      0.379802
@<TRIPOS>BOND
     1    1    2 1   
     2    1    4 1   
     3    1    5 1   
     4    1    6 1   
     5    2    3 2   
     6    2    7 1   
     7    7    8 1   
     8    7   15 1   
     9    8    9 1   
    10    8   11 1   
    11    8   16 1   
    12    9   10 2   
    13    9   19 1   
    14   11   12 1   
    15   11   17 1   
    16   11   18 1   
    17   12   13 1   
    18   12   14 1   
    19   19   20 1   
    20   19   27 1   
    21   20   21 1   
    22   20   23 1   
    23   20   28 1   
    24   21   22 2   
    25   21   38 1   
    26   23   24 1   
    27   23   25 1   
    28   23   29 1   
    29   24   26 1   
    30   24   30 1   
    31   24   31 1   
    32   25   32 1   
    33   25   33 1   
    34   25   34 1   
    35   26   35 1   
    36   26   36 1   
    37   26   37 1   
    38   38   39 1   
    39   38   46 1   
    40   39   40 1   
    41   39   42 1   
    42   39   47 1   
    43   40   41 2   
    44   40   50 1   
    45   42   43 1   
    46   42   48 1   
    47   42   49 1   
    48   43   44 1   
    49   43   45 1   
    50   50   51 1   
    51   50   54 1   
    52   51   52 1   
    53   51   55 1   
    54   51   56 1   
    55   52   53 2   
    56   52   57 1   
    57   57   58 1   
    58   57   65 1   
    59   58   59 1   
    60   58   61 1   
    61   58   66 1   
    62   59   60 2   
    63   59   69 1   
    64   61   62 1   
    65   61   67 1   
    66   61   68 1   
    67   62   63 1   
    68   62   64 1   
    69   69   70 1   
    70   69   73 1   
    71   70   71 1   
    72   70   74 1   
    73   70   75 1   
    74   71   72 2   
    75   71   76 1   
    76   76   77 1   
    77   76   85 1   
    78   77   78 1   
    79   77   80 1   
    80   77   86 1   
    81   78   79 2   
    82   78   93 1   
    83   80   81 1   
    84   80   87 1   
    85   80   88 1   
    86   81   82 1   
    87   81   89 1   
    88   81   90 1   
    89   82   83 1   
    90   82   84 2   
    91   83   91 1   
    92   83   92 1   
    93   93   94 1   
    94   93  100 1   
    95   94   95 1   
    96   94   97 1   
    97   94  101 1   
    98   95   96 2   
    99   95  109 1   
   100   97   98 1   
   101   97   99 1   
   102   97  102 1   
   103   98  103 1   
   104   98  104 1   
   105   98  105 1   
   106   99  106 1   
   107   99  107 1   
   108   99  108 1   
   109  109  110 1   
   110  109  117 1   
   111  110  111 1   
   112  110  113 1   
   113  110  118 1   
   114  111  112 2   
   115  111  123 1   
   116  113  114 1   
   117  113  119 1   
   118  113  120 1   
   119  114  115 1   
   120  114  116 2   
   121  115  121 1   
   122  115  122 1   
   123  123  124 1   
   124  123  135 1   
   125  124  125 1   
   126  124  127 1   
   127  124  136 1   
   128  125  126 2   
   129  125  144 1   
   130  127  128 1   
   131  127  137 1   
   132  127  138 1   
   133  128  129 ar  
   134  128  130 ar  
   135  129  131 ar  
   136  129  139 1   
   137  130  132 ar  
   138  130  140 1   
   139  131  133 ar  
   140  131  141 1   
   141  132  133 ar  
   142  132  142 1   
   143  133  134 1   
   144  134  143 1   
   145  144  145 1   
   146  144  153 1   
   147  145  146 1   
   148  145  148 1   
   149  145  154 1   
   150  146  147 2   
   151  146  159 1   
   152  148  149 1   
   153  148  155 1   
   154  148  156 1   
   155  149  150 1   
   156  149  157 1   
   157  149  158 1   
   158  150  151 1   
   159  150  152 1   
   160  159  160 1   
   161  159  168 1   
   162  160  161 1   
   163  160  163 1   
   164  160  169 1   
   165  161  162 2   
   166  161  174 1   
   167  163  164 1   
   168  163  170 1   
   169  163  171 1   
   170  164  165 1   
   171  164  172 1   
   172  164  173 1   
   173  165  166 1   
   174  165  167 1   
   175  174  175 1   
   176  174  179 1   
   177  175  176 1   
   178  175  177 1   
   179  175  178 1   
   180  181  182 1   
   181  181  183 1   
   182  184  185 1   
   183  184  186 1   
   184  187  188 1   
   185  187  189 1   
   186  190  191 1   
   187  190  192 1   
   188  193  194 1   
   189  193  195 1   
   190  196  197 1   
   191  196  198 1   
   192  199  200 1   
   193  199  201 1   
@<TRIPOS>SUBSTRUCTURE
     1 MOL         1 TEMP              0 ****  ****    0 ROOT
