@<TRIPOS>MOLECULE
MOL
  185   180     1     0     0
SMALL
resp


@<TRIPOS>ATOM
      1 C1         -5.4360    1.7470   -3.4150 c3        1 MOL     -0.354564
      2 C2         -6.1060    1.6660   -1.9870 c         1 MOL      0.620803
      3 O1         -5.4730    1.2460   -1.0620 o         1 MOL     -0.463748
      4 H1         -5.4780    0.7680   -3.8910 hc        1 MOL      0.088606
      5 H2         -5.9730    2.4710   -4.0280 hc        1 MOL      0.088606
      6 H3         -4.3960    2.0580   -3.3120 hc        1 MOL      0.088606
      7 N1         -7.4150    1.8480   -1.9160 n         1 MOL     -0.460321
      8 C3         -8.2730    1.5280   -0.7630 c3        1 MOL      0.209347
      9 C4         -8.1890    0.0710   -0.2990 c         1 MOL      0.376718
     10 O2         -8.2870   -0.3280    0.8770 o         1 MOL     -0.438670
     11 C5         -8.2610    2.6260    0.3330 c3        1 MOL     -0.476976
     12 C6         -8.5980    4.0270   -0.2010 c         1 MOL      0.799127
     13 O3         -9.7750    4.3060   -0.4620 o         1 MOL     -0.703458
     14 O4         -7.7140    4.8690   -0.4670 o         1 MOL     -0.703458
     15 H4         -7.9340    2.1270   -2.7430 hn        1 MOL      0.303754
     16 H5         -9.2490    1.5500   -1.2610 h1        1 MOL      0.031584
     17 H6         -7.2660    2.6970    0.7740 hc        1 MOL      0.136099
     18 H7         -8.8340    2.4080    1.2330 hc        1 MOL      0.136099
     19 N2         -7.9870   -0.8050   -1.2840 n         1 MOL     -0.586862
     20 C7         -7.6600   -2.2300   -1.1040 c3        1 MOL     -0.103014
     21 C8         -6.3440   -2.6290   -0.5080 c         1 MOL      0.656421
     22 O5         -6.2400   -3.7720   -0.0470 o         1 MOL     -0.613187
     23 C9         -7.8330   -3.0230   -2.4710 c3        1 MOL     -0.042673
     24 C10        -9.1220   -2.7770   -3.2290 c3        1 MOL      0.230006
     25 C11       -10.3960   -3.4430   -2.7070 c3        1 MOL     -0.287421
     26 C12       -10.9820   -2.5080   -1.6030 c3        1 MOL      0.169396
     27 N3        -11.9770   -3.2670   -0.8220 n4        1 MOL     -0.471636
     28 H8         -7.8960   -0.4080   -2.2170 hn        1 MOL      0.283919
     29 H9         -8.4170   -2.5410   -0.3740 h1        1 MOL      0.098088
     30 H10        -7.7830   -4.0920   -2.2870 hc        1 MOL      0.036385
     31 H11        -6.9720   -2.9330   -3.1310 hc        1 MOL      0.036385
     32 H12        -8.9110   -3.1590   -4.2320 hc        1 MOL     -0.023729
     33 H13        -9.2270   -1.7300   -3.5010 hc        1 MOL     -0.023729
     34 H14       -10.2980   -4.4210   -2.2340 hc        1 MOL      0.089559
     35 H15       -11.1060   -3.5010   -3.5230 hc        1 MOL      0.089559
     36 H16       -11.4840   -1.6370   -2.0260 hx        1 MOL      0.082711
     37 H17       -10.3080   -2.1150   -0.8470 hx        1 MOL      0.082711
     38 H18       -11.5040   -4.0850   -0.4580 hn        1 MOL      0.350260
     39 H19       -12.3710   -2.7310   -0.0680 hn        1 MOL      0.350260
     40 H20       -12.7530   -3.5140   -1.4280 hn        1 MOL      0.350260
     41 N4         -5.3870   -1.7670   -0.5530 n         1 MOL     -0.393158
     42 C13        -3.9780   -2.0910   -0.2520 c3        1 MOL     -0.019381
     43 C14        -3.8970   -2.6210    1.2330 c         1 MOL      0.710464
     44 O6         -4.5290   -2.1480    2.1840 o         1 MOL     -0.517885
     45 C15        -3.0970   -0.8700   -0.5180 c3        1 MOL     -0.355117
     46 C16        -1.6000   -1.1740   -0.2670 c         1 MOL      0.685859
     47 O7         -1.1090   -1.2700    0.9260 o         1 MOL     -0.676078
     48 O8         -0.8210   -1.3410   -1.2420 o         1 MOL     -0.676078
     49 H21        -5.7200   -0.8830   -0.9160 hn        1 MOL      0.302726
     50 H22        -3.7270   -2.9050   -0.9250 h1        1 MOL      0.059210
     51 H23        -3.3040    0.0300    0.0710 hc        1 MOL      0.149068
     52 H24        -3.3000   -0.6200   -1.5590 hc        1 MOL      0.149068
     53 N5         -3.1900   -3.7050    1.3030 n         1 MOL     -0.463854
     54 C17        -3.0040   -4.4260    2.5700 c3        1 MOL      0.060564
     55 C18        -2.2790   -3.6950    3.6540 c         1 MOL      0.433004
     56 O9         -2.5270   -3.9130    4.8160 o         1 MOL     -0.543859
     57 H25        -2.7460   -4.0160    0.4470 hn        1 MOL      0.247360
     58 H26        -2.4020   -5.3000    2.3010 h1        1 MOL      0.059935
     59 H27        -3.8360   -4.9360    3.0410 h1        1 MOL      0.059935
     60 N6         -1.3600   -2.8110    3.3390 n         1 MOL     -0.273782
     61 C19        -0.5780   -2.0120    4.3370 c3        1 MOL      0.000753
     62 C20        -0.9710   -0.5840    4.3260 c         1 MOL      0.522804
     63 O10        -0.3550    0.1680    5.1040 o         1 MOL     -0.593640
     64 C21         0.9340   -2.4010    4.2070 c3        1 MOL     -0.279043
     65 C22         1.6410   -1.5220    3.1580 c         1 MOL      0.871121
     66 N7          1.9920   -0.3440    3.4330 n         1 MOL     -0.807562
     67 O11         2.0280   -1.9410    2.0830 o         1 MOL     -0.792474
     68 H28        -1.1330   -2.6610    2.3660 hn        1 MOL      0.198261
     69 H29        -0.9120   -2.2280    5.3520 h1        1 MOL      0.135954
     70 H30         1.0730   -3.4520    3.9420 hc        1 MOL      0.099739
     71 H31         1.4670   -2.2420    5.1340 hc        1 MOL      0.099739
     72 H32         1.6060    0.0540    4.2710 hn        1 MOL      0.370830
     73 H33         2.6340    0.1370    2.8100 hn        1 MOL      0.370830
     74 N8         -1.8630   -0.0980    3.4210 n         1 MOL     -0.168626
     75 C23        -2.3390    1.2630    3.3780 c3        1 MOL     -0.426707
     76 C24        -1.5200    2.2030    2.5250 c         1 MOL      0.790843
     77 O12        -1.5570    3.3270    2.9220 o         1 MOL     -0.579198
     78 H34        -2.0760   -0.7110    2.6430 hn        1 MOL      0.118776
     79 H35        -2.3400    1.6260    4.4070 h1        1 MOL      0.189215
     80 H36        -3.2870    1.1870    2.8500 h1        1 MOL      0.189215
     81 N9         -0.8140    1.7760    1.4930 n         1 MOL     -0.418686
     82 C25        -0.1080    2.6080    0.5100 c3        1 MOL      0.128208
     83 C26         1.0920    1.8450   -0.0540 c         1 MOL      0.349864
     84 O13         1.2170    0.6000    0.0540 o         1 MOL     -0.308283
     85 C27        -1.1050    3.0340   -0.6040 c3        1 MOL     -0.090486
     86 C28        -2.1570    4.0550   -0.3370 ca        1 MOL     -0.008286
     87 C29        -3.3900    3.5570    0.1350 ca        1 MOL     -0.125343
     88 C30        -2.0640    5.3930   -0.7390 ca        1 MOL     -0.125343
     89 C31        -4.4560    4.4000    0.2040 ca        1 MOL     -0.262093
     90 C32        -3.2020    6.2790   -0.6750 ca        1 MOL     -0.262093
     91 C33        -4.4180    5.7770   -0.2020 ca        1 MOL      0.408818
     92 O14        -5.5760    6.5020   -0.2530 oh        1 MOL     -0.558636
     93 H37        -0.8540    0.8000    1.2460 hn        1 MOL      0.084016
     94 H38         0.2970    3.4750    1.0140 h1        1 MOL      0.015645
     95 H39        -1.5800    2.1060   -0.8910 hc        1 MOL      0.041493
     96 H40        -0.5490    3.3860   -1.4770 hc        1 MOL      0.041493
     97 H41        -3.4750    2.5010    0.3230 ha        1 MOL      0.086071
     98 H42        -1.1910    5.7910   -1.2310 ha        1 MOL      0.086071
     99 H43        -5.3970    4.0070    0.5760 ha        1 MOL      0.130943
    100 H44        -3.1640    7.2960   -1.0350 ha        1 MOL      0.130943
    101 H45        -6.3440    5.9220   -0.1810 ho        1 MOL      0.414301
    102 N10         1.8560    2.5590   -0.8270 n         1 MOL     -0.348063
    103 C34         3.2130    2.1220   -1.2440 c3        1 MOL     -0.208982
    104 C35         4.3000    2.2110   -0.1090 c         1 MOL      0.327203
    105 O15         4.9370    1.2420    0.1420 o         1 MOL     -0.352824
    106 C36         3.6600    2.9750   -2.4660 c3        1 MOL      0.027454
    107 C37         2.6310    2.8740   -3.6120 c3        1 MOL     -0.065881
    108 C38         4.9720    2.3940   -3.0020 c3        1 MOL     -0.369861
    109 C39         3.0080    3.5240   -5.0250 c3        1 MOL     -0.146023
    110 H46         1.5900    3.5280   -0.9490 hn        1 MOL      0.311138
    111 H47         3.0970    1.0780   -1.5520 h1        1 MOL      0.117236
    112 H48         3.6950    4.0510   -2.2470 hc        1 MOL      0.029189
    113 H49         1.7000    3.3470   -3.2610 hc        1 MOL      0.054002
    114 H50         2.2710    1.8550   -3.7920 hc        1 MOL      0.054002
    115 H51         5.8220    2.3410   -2.3180 hc        1 MOL      0.113486
    116 H52         4.7640    1.4160   -3.4390 hc        1 MOL      0.113486
    117 H53         5.3390    2.9930   -3.8410 hc        1 MOL      0.113486
    118 H54         3.4430    4.5280   -4.9510 hc        1 MOL      0.050274
    119 H55         3.6950    2.9040   -5.5960 hc        1 MOL      0.050274
    120 H56         2.1880    3.7380   -5.7190 hc        1 MOL      0.050274
    121 N11         4.3320    3.2570    0.6780 n         1 MOL     -0.128198
    122 C40         5.2850    3.4060    1.7520 c3        1 MOL     -0.036583
    123 C41         6.8330    3.3660    1.4690 c         1 MOL      0.320217
    124 O16         7.5240    2.9330    2.3820 o         1 MOL     -0.460289
    125 C42         4.9870    4.7660    2.3850 c3        1 MOL      0.104046
    126 O17         3.6480    4.7710    2.8670 oh        1 MOL     -0.564600
    127 H57         3.6050    3.9520    0.6380 hn        1 MOL      0.225120
    128 H58         5.0170    2.6140    2.4470 h1        1 MOL      0.152481
    129 H59         5.0570    5.4120    1.5060 h1        1 MOL      0.035082
    130 H60         5.5950    5.0230    3.2400 h1        1 MOL      0.035082
    131 H61         3.5230    5.6470    3.2340 ho        1 MOL      0.410863
    132 N12         7.2320    3.5790    0.2260 n         1 MOL     -0.209970
    133 C43         8.5430    3.1220   -0.2950 c3        1 MOL      0.067639
    134 C44         8.9050    1.5730   -0.1970 c         1 MOL      0.393702
    135 O18         9.9090    1.1390   -0.7150 o         1 MOL     -0.503622
    136 C45         9.6460    4.0710    0.1490 c3        1 MOL     -0.342111
    137 H62         6.5920    4.0250   -0.4200 hn        1 MOL      0.211997
    138 H63         8.3580    3.4170   -1.3280 h1        1 MOL      0.076240
    139 H64         9.3280    5.1130    0.2040 hc        1 MOL      0.110880
    140 H65         9.9520    3.8100    1.1560 hc        1 MOL      0.110880
    141 H66        10.5280    3.9520   -0.4880 hc        1 MOL      0.110880
    142 N13         7.9920    0.7980    0.3890 n         1 MOL     -0.064121
    143 C46         8.0620   -0.6230    0.6220 c3        1 MOL      0.182959
    144 C47         7.3800   -1.4400   -0.4970 c         1 MOL      0.404294
    145 O19         6.6360   -0.9500   -1.3460 o         1 MOL     -0.482466
    146 C48         7.4000   -0.9520    1.9450 c3        1 MOL     -0.232208
    147 H67         7.1030    1.2070    0.6540 hn        1 MOL     -0.048616
    148 H68         9.1160   -0.8960    0.6980 h1        1 MOL      0.025385
    149 H69         7.1190   -2.0080    1.9360 hc        1 MOL      0.081032
    150 H70         8.1380   -0.8040    2.7340 hc        1 MOL      0.081032
    151 H71         6.5010   -0.3910    2.2180 hc        1 MOL      0.081032
    152 N14         7.7380   -2.7500   -0.5270 n         1 MOL     -0.549541
    153 C49         7.2990   -3.8040   -1.4630 c3        1 MOL     -0.359269
    154 C50         7.6110   -3.4990   -2.9590 c         1 MOL      0.555590
    155 O20         7.1390   -4.3110   -3.8020 o         1 MOL     -0.549145
    156 C51         5.7770   -4.1530   -1.2220 c3        1 MOL      0.361601
    157 C52         5.4640   -4.8050    0.1320 c3        1 MOL     -0.118246
    158 C53         3.9780   -5.0220    0.3490 c         1 MOL      0.642790
    159 O21         3.1930   -4.0540    0.2240 o         1 MOL     -0.667901
    160 O22         3.5520   -6.1290    0.5400 o         1 MOL     -0.667901
    161 H72         8.3590   -3.0760    0.2010 hn        1 MOL      0.354582
    162 H73         7.9070   -4.6460   -1.1440 h1        1 MOL      0.182961
    163 H74         5.3780   -4.8050   -2.0010 hc        1 MOL     -0.056466
    164 H75         5.2270   -3.2190   -1.3170 hc        1 MOL     -0.056466
    165 H76         5.8210   -4.1840    0.9580 hc        1 MOL     -0.006398
    166 H77         6.0650   -5.7060    0.1660 hc        1 MOL     -0.006398
    167 N15         8.4570   -2.5550   -3.2840 n         1 MOL     -0.275845
    168 C54         8.8850   -2.1330   -4.6620 c3        1 MOL     -0.156289
    169 H78         8.9430   -3.0090   -5.3080 h1        1 MOL      0.094852
    170 H79         8.1590   -1.4290   -5.0690 h1        1 MOL      0.094852
    171 H80         9.8640   -1.6560   -4.6090 h1        1 MOL      0.094852
    172 H81         8.7740   -1.9280   -2.5560 hn        1 MOL      0.266151
    173 Ca1         1.5210   -2.0860   -0.4350 Ca        1 MOL      1.740443
    174 O23         3.8850   -1.0100   -0.2090 oh        1 MOL     -0.869103
    175 H82         4.5390   -1.6600   -0.4620 ho        1 MOL      0.423800
    176 H83         4.3940   -0.2320    0.0100 ho        1 MOL      0.423800
    177 O24        -0.0530   -4.1710    0.2630 oh        1 MOL     -0.869103
    178 H84         0.2730   -4.8610    0.8420 ho        1 MOL      0.423800
    179 H85        -0.8110   -4.5590   -0.1700 ho        1 MOL      0.423800
    180 O25         1.8610   -1.0320   -2.8190 oh        1 MOL     -0.869103
    181 H86         1.4900   -1.2010   -3.6790 ho        1 MOL      0.423800
    182 H87         2.8070   -0.9550   -2.9750 ho        1 MOL      0.423800
    183 O26         1.7540   -3.9860   -2.2440 oh        1 MOL     -0.869103
    184 H88         2.4170   -4.2390   -2.8910 ho        1 MOL      0.423800
    185 H89         1.0280   -4.6030   -2.3900 ho        1 MOL      0.423800
@<TRIPOS>BOND
     1    1    2 1   
     2    1    4 1   
     3    1    5 1   
     4    1    6 1   
     5    2    3 2   
     6    2    7 1   
     7    7    8 1   
     8    7   15 1   
     9    8    9 1   
    10    8   11 1   
    11    8   16 1   
    12    9   10 2   
    13    9   19 1   
    14   11   12 1   
    15   11   17 1   
    16   11   18 1   
    17   12   13 1   
    18   12   14 1   
    19   19   20 1   
    20   19   28 1   
    21   20   21 1   
    22   20   23 1   
    23   20   29 1   
    24   21   22 2   
    25   21   41 1   
    26   23   24 1   
    27   23   30 1   
    28   23   31 1   
    29   24   25 1   
    30   24   32 1   
    31   24   33 1   
    32   25   26 1   
    33   25   34 1   
    34   25   35 1   
    35   26   27 1   
    36   26   36 1   
    37   26   37 1   
    38   27   38 1   
    39   27   39 1   
    40   27   40 1   
    41   41   42 1   
    42   41   49 1   
    43   42   43 1   
    44   42   45 1   
    45   42   50 1   
    46   43   44 2   
    47   43   53 1   
    48   45   46 1   
    49   45   51 1   
    50   45   52 1   
    51   46   47 1   
    52   46   48 1   
    53   53   54 1   
    54   53   57 1   
    55   54   55 1   
    56   54   58 1   
    57   54   59 1   
    58   55   56 2   
    59   55   60 1   
    60   60   61 1   
    61   60   68 1   
    62   61   62 1   
    63   61   64 1   
    64   61   69 1   
    65   62   63 2   
    66   62   74 1   
    67   64   65 1   
    68   64   70 1   
    69   64   71 1   
    70   65   66 1   
    71   65   67 2   
    72   66   72 1   
    73   66   73 1   
    74   74   75 1   
    75   74   78 1   
    76   75   76 1   
    77   75   79 1   
    78   75   80 1   
    79   76   77 2   
    80   76   81 1   
    81   81   82 1   
    82   81   93 1   
    83   82   83 1   
    84   82   85 1   
    85   82   94 1   
    86   83   84 2   
    87   83  102 1   
    88   85   86 1   
    89   85   95 1   
    90   85   96 1   
    91   86   87 ar  
    92   86   88 ar  
    93   87   89 ar  
    94   87   97 1   
    95   88   90 ar  
    96   88   98 1   
    97   89   91 ar  
    98   89   99 1   
    99   90   91 ar  
   100   90  100 1   
   101   91   92 1   
   102   92  101 1   
   103  102  103 1   
   104  102  110 1   
   105  103  104 1   
   106  103  106 1   
   107  103  111 1   
   108  104  105 2   
   109  104  121 1   
   110  106  107 1   
   111  106  108 1   
   112  106  112 1   
   113  107  109 1   
   114  107  113 1   
   115  107  114 1   
   116  108  115 1   
   117  108  116 1   
   118  108  117 1   
   119  109  118 1   
   120  109  119 1   
   121  109  120 1   
   122  121  122 1   
   123  121  127 1   
   124  122  123 1   
   125  122  125 1   
   126  122  128 1   
   127  123  124 2   
   128  123  132 1   
   129  125  126 1   
   130  125  129 1   
   131  125  130 1   
   132  126  131 1   
   133  132  133 1   
   134  132  137 1   
   135  133  134 1   
   136  133  136 1   
   137  133  138 1   
   138  134  135 2   
   139  134  142 1   
   140  136  139 1   
   141  136  140 1   
   142  136  141 1   
   143  142  143 1   
   144  142  147 1   
   145  143  144 1   
   146  143  146 1   
   147  143  148 1   
   148  144  145 2   
   149  144  152 1   
   150  146  149 1   
   151  146  150 1   
   152  146  151 1   
   153  152  153 1   
   154  152  161 1   
   155  153  154 1   
   156  153  156 1   
   157  153  162 1   
   158  154  155 2   
   159  154  167 1   
   160  156  157 1   
   161  156  163 1   
   162  156  164 1   
   163  157  158 1   
   164  157  165 1   
   165  157  166 1   
   166  158  159 1   
   167  158  160 1   
   168  167  168 1   
   169  167  172 1   
   170  168  169 1   
   171  168  170 1   
   172  168  171 1   
   173  174  175 1   
   174  174  176 1   
   175  177  178 1   
   176  177  179 1   
   177  180  181 1   
   178  180  182 1   
   179  183  184 1   
   180  183  185 1   
@<TRIPOS>SUBSTRUCTURE
     1 MOL         1 TEMP              0 ****  ****    0 ROOT
