@<TRIPOS>MOLECULE
MOL
  192   187     1     0     0
SMALL
resp


@<TRIPOS>ATOM
      1 C1          4.0470   -1.9680   -2.8850 c3        1 MOL     -0.328300
      2 C2          3.2130   -2.7000   -1.7790 c         1 MOL      0.534462
      3 O1          2.1530   -2.1530   -1.4310 o         1 MOL     -0.488922
      4 H1          3.3820   -1.3550   -3.4930 hc        1 MOL      0.076763
      5 H2          4.7960   -1.3320   -2.4140 hc        1 MOL      0.076763
      6 H3          4.5400   -2.7060   -3.5170 hc        1 MOL      0.076763
      7 N1          3.6310   -3.7760   -1.1740 n         1 MOL     -0.141639
      8 C3          2.8760   -4.4860   -0.0690 c3        1 MOL     -0.401839
      9 C4          1.3810   -4.7120   -0.2790 c         1 MOL      0.994366
     10 O2          0.5910   -4.6640    0.6290 o         1 MOL     -0.573835
     11 C5          3.3030   -4.0500    1.3740 c3        1 MOL     -0.573312
     12 C6          4.7830   -3.8430    1.4520 c         1 MOL      1.134943
     13 O3          5.2670   -2.9350    2.1500 o         1 MOL     -0.819282
     14 O4          5.5880   -4.7270    0.9580 o         1 MOL     -0.819282
     15 H4          4.5950   -4.0430   -1.2880 hn        1 MOL      0.094404
     16 H5          3.2580   -5.5000   -0.1580 h1        1 MOL      0.150331
     17 H6          2.9280   -4.7430    2.1330 hc        1 MOL      0.184277
     18 H7          2.8010   -3.1090    1.5980 hc        1 MOL      0.184277
     19 N2          0.9740   -4.7950   -1.5470 n         1 MOL     -0.731965
     20 C7         -0.4430   -5.0960   -1.8860 c3        1 MOL     -0.214258
     21 C8         -0.8120   -6.5080   -1.6760 c         1 MOL      0.665790
     22 O5          0.0000   -7.4390   -1.5930 o         1 MOL     -0.595591
     23 C9         -0.7160   -4.7200   -3.3600 c3        1 MOL      0.125730
     24 C10        -0.1330   -5.6850   -4.3990 c3        1 MOL      0.062803
     25 C11        -0.2610   -3.2670   -3.6310 c3        1 MOL     -0.365607
     26 C12        -0.5090   -5.3540   -5.8940 c3        1 MOL     -0.231356
     27 H8          1.6960   -4.7020   -2.2510 hn        1 MOL      0.322842
     28 H9         -1.0530   -4.3840   -1.3440 h1        1 MOL      0.232538
     29 H10        -1.7830   -4.8170   -3.5550 hc        1 MOL      0.075566
     30 H11        -0.4020   -6.7410   -4.3230 hc        1 MOL      0.013196
     31 H12         0.9530   -5.6030   -4.3100 hc        1 MOL      0.013196
     32 H13         0.8100   -3.0810   -3.6660 hc        1 MOL      0.100887
     33 H14        -0.7570   -2.9220   -4.5430 hc        1 MOL      0.100887
     34 H15        -0.7490   -2.6370   -2.8870 hc        1 MOL      0.100887
     35 H16        -1.5940   -5.3230   -6.0010 hc        1 MOL      0.043887
     36 H17        -0.1500   -4.4170   -6.3110 hc        1 MOL      0.043887
     37 H18        -0.1070   -6.1970   -6.4720 hc        1 MOL      0.043887
     38 N3         -2.1300   -6.7940   -1.4630 n         1 MOL     -0.667481
     39 C13        -3.2370   -5.8090   -1.2300 c3        1 MOL      0.024710
     40 C14        -3.7970   -6.1180    0.1640 c         1 MOL      0.813947
     41 O6         -4.4580   -7.0890    0.3620 o         1 MOL     -0.603286
     42 C15        -4.2480   -6.0380   -2.3460 c3        1 MOL     -0.226935
     43 C16        -5.4580   -5.1760   -2.1710 c         1 MOL      0.728704
     44 O7         -6.4600   -5.4480   -2.9040 o         1 MOL     -0.704696
     45 O8         -5.4790   -4.2400   -1.2990 o         1 MOL     -0.704696
     46 H19        -2.3730   -7.7620   -1.6240 hn        1 MOL      0.348210
     47 H20        -2.8890   -4.7780   -1.1710 h1        1 MOL      0.007981
     48 H21        -4.5300   -7.0950   -2.4180 hc        1 MOL      0.058521
     49 H22        -3.7550   -5.7300   -3.2600 hc        1 MOL      0.058521
     50 N4         -3.5590   -5.2450    1.1370 n         1 MOL     -0.622529
     51 C17        -4.2370   -5.2780    2.5090 c3        1 MOL      0.171790
     52 C18        -5.2690   -4.1790    2.6850 c         1 MOL      0.508532
     53 O9         -6.4390   -4.5040    2.7530 o         1 MOL     -0.559713
     54 H23        -3.1120   -4.3680    0.8950 hn        1 MOL      0.312596
     55 H24        -3.4910   -5.0450    3.2690 h1        1 MOL      0.014751
     56 H25        -4.5210   -6.2710    2.8570 h1        1 MOL      0.014751
     57 N5         -4.8800   -2.9380    2.9220 n         1 MOL     -0.409450
     58 C19        -5.6600   -1.8090    3.4680 c3        1 MOL     -0.050180
     59 C20        -6.7460   -1.2680    2.5260 c         1 MOL      0.492692
     60 O10        -7.8500   -0.9040    3.0400 o         1 MOL     -0.590712
     61 C21        -4.7700   -0.6740    3.8190 c3        1 MOL     -0.281623
     62 C22        -3.7150   -0.4390    2.7570 c         1 MOL      0.752913
     63 O11        -2.7860   -1.2060    2.7680 o         1 MOL     -0.702123
     64 O12        -3.8080    0.5200    1.9810 o         1 MOL     -0.702123
     65 H26        -3.8950   -2.7390    2.8570 hn        1 MOL      0.264880
     66 H27        -6.1210   -2.1350    4.4010 h1        1 MOL      0.094775
     67 H28        -4.2240   -0.7650    4.7590 hc        1 MOL      0.070341
     68 H29        -5.3550    0.2080    4.0440 hc        1 MOL      0.070341
     69 N6         -6.5560   -1.2730    1.1720 n         1 MOL     -0.093703
     70 C23        -7.6010   -0.6780    0.2260 c3        1 MOL     -0.326489
     71 C24        -7.6810    0.8590    0.2090 c         1 MOL      0.713059
     72 O13        -8.3290    1.2900   -0.7250 o         1 MOL     -0.592143
     73 H30        -5.6740   -1.5830    0.8040 hn        1 MOL      0.222681
     74 H31        -8.5780   -1.0620    0.5410 h1        1 MOL      0.147080
     75 H32        -7.3620   -1.0330   -0.7790 h1        1 MOL      0.147080
     76 N7         -7.0390    1.6330    1.1050 n         1 MOL     -0.547363
     77 C25        -6.9610    3.1620    1.2090 c3        1 MOL      0.052318
     78 C26        -6.5860    3.9130   -0.0930 c         1 MOL      0.277442
     79 O14        -6.7260    5.1410   -0.1540 o         1 MOL     -0.488143
     80 C27        -8.2190    3.7450    1.8760 c3        1 MOL      0.160628
     81 C28        -8.3860    3.1810    3.3830 c3        1 MOL     -0.083626
     82 C29        -7.5040    3.8420    4.4220 c         1 MOL      0.603594
     83 N8         -7.3660    3.2700    5.5940 n         1 MOL     -0.749515
     84 O15        -6.9930    4.8910    4.1670 o         1 MOL     -0.552770
     85 H33        -6.3950    1.1980    1.7470 hn        1 MOL      0.221699
     86 H34        -6.1820    3.3400    1.9430 h1        1 MOL      0.143028
     87 H35        -9.1670    3.5460    1.3800 hc        1 MOL     -0.023101
     88 H36        -8.1360    4.8130    2.0000 hc        1 MOL     -0.023101
     89 H37        -8.1900    2.1070    3.3840 hc        1 MOL      0.021386
     90 H38        -9.4310    3.2970    3.6620 hc        1 MOL      0.021386
     91 H39        -7.9380    2.5560    6.0170 hn        1 MOL      0.333860
     92 H40        -6.8050    3.8310    6.2260 hn        1 MOL      0.333860
     93 N9         -6.1130    3.2730   -1.1830 n         1 MOL     -0.041141
     94 C30        -5.7220    3.9520   -2.4370 c3        1 MOL     -0.170291
     95 C31        -4.2500    3.7970   -2.8310 c         1 MOL      0.544031
     96 O16        -3.7890    4.4340   -3.7810 o         1 MOL     -0.583117
     97 C32        -6.5130    3.4130   -3.6740 c3        1 MOL      0.385365
     98 C33        -6.2090    1.8620   -3.8120 c3        1 MOL     -0.279851
     99 C34        -8.0230    3.6910   -3.6840 c3        1 MOL     -0.279851
    100 H41        -5.9310    2.2850   -1.1500 hn        1 MOL      0.197708
    101 H42        -6.0380    4.9930   -2.3440 h1        1 MOL      0.094930
    102 H43        -6.1090    3.8690   -4.5830 hc        1 MOL     -0.062398
    103 H44        -6.6400    1.2220   -3.0430 hc        1 MOL      0.052260
    104 H45        -6.7320    1.5260   -4.7130 hc        1 MOL      0.052260
    105 H46        -5.1590    1.6510   -4.0270 hc        1 MOL      0.052260
    106 H47        -8.4640    3.3190   -2.7600 hc        1 MOL      0.052260
    107 H48        -8.1330    4.7690   -3.8010 hc        1 MOL      0.052260
    108 H49        -8.5110    3.1930   -4.5270 hc        1 MOL      0.052260
    109 N10        -3.4400    3.0380   -2.1410 n         1 MOL     -0.539525
    110 C35        -2.0350    2.7790   -2.4680 c3        1 MOL      0.614762
    111 C36        -1.1270    3.0810   -1.2710 c         1 MOL      0.438296
    112 O17        -1.6560    3.0490   -0.1930 o         1 MOL     -0.518000
    113 C37        -1.9450    1.3550   -2.9770 c3        1 MOL     -0.513934
    114 C38        -0.5090    0.8180   -3.0340 c         1 MOL      0.656687
    115 N11        -0.2090   -0.1180   -2.1610 n         1 MOL     -0.678553
    116 O18         0.2800    1.1430   -3.8850 o         1 MOL     -0.596704
    117 H50        -3.7800    2.5450   -1.3250 hn        1 MOL      0.226887
    118 H51        -1.7370    3.4900   -3.2350 h1        1 MOL     -0.055302
    119 H52        -2.3020    1.4010   -4.0090 hc        1 MOL      0.136873
    120 H53        -2.4040    0.6650   -2.2820 hc        1 MOL      0.136873
    121 H54        -0.8410   -0.3480   -1.4030 hn        1 MOL      0.342366
    122 H55         0.5880   -0.6600   -2.4540 hn        1 MOL      0.342366
    123 N12         0.1400    3.2820   -1.5000 n         1 MOL     -0.515359
    124 C39         1.0740    3.5910   -0.3500 c3        1 MOL      0.182002
    125 C40         2.4330    4.1180   -0.8400 c         1 MOL      0.496536
    126 O19         2.7820    3.7400   -1.9550 o         1 MOL     -0.541824
    127 C41         1.3380    2.2800    0.4090 c3        1 MOL     -0.208453
    128 C42         1.9700    2.4590    1.8380 ca        1 MOL      0.107418
    129 C43         3.3210    2.2160    2.1020 ca        1 MOL     -0.185300
    130 C44         1.1530    2.7370    2.8920 ca        1 MOL     -0.185300
    131 C45         3.8730    2.1050    3.3680 ca        1 MOL     -0.220045
    132 C46         1.6760    2.7690    4.2010 ca        1 MOL     -0.220045
    133 C47         3.0480    2.4830    4.4780 ca        1 MOL      0.304327
    134 O20         3.4550    2.5480    5.7610 oh        1 MOL     -0.538867
    135 H56         0.5250    3.2000   -2.4290 hn        1 MOL      0.297228
    136 H57         0.7160    4.3960    0.2800 h1        1 MOL      0.037175
    137 H58         1.9270    1.5600   -0.1620 hc        1 MOL      0.110313
    138 H59         0.4090    1.7340    0.5520 hc        1 MOL      0.110313
    139 H60         3.9310    2.1800    1.2090 ha        1 MOL      0.154120
    140 H61         0.0920    2.8460    2.7080 ha        1 MOL      0.154120
    141 H62         4.9220    1.9140    3.4840 ha        1 MOL      0.136453
    142 H63         1.0100    3.0540    5.0050 ha        1 MOL      0.136453
    143 H64         4.3990    2.4090    5.8440 ho        1 MOL      0.402243
    144 N13         3.2410    4.7550    0.1020 n         1 MOL     -0.460105
    145 C48         4.5660    5.2810   -0.2830 c3        1 MOL      0.133988
    146 C49         5.6200    4.5800    0.5930 c         1 MOL      0.538622
    147 O21         5.7730    4.9730    1.7320 o         1 MOL     -0.583722
    148 C50         4.5780    6.8290   -0.0710 c3        1 MOL      0.138797
    149 C51         3.5140    7.5320   -0.9340 c3        1 MOL     -0.323310
    150 C52         3.7470    9.0370   -0.7030 c         1 MOL      0.757328
    151 O22         4.2630    9.6770   -1.6330 o         1 MOL     -0.704670
    152 O23         3.4320    9.5700    0.3560 o         1 MOL     -0.704670
    153 H65         2.8950    4.8500    1.0370 hn        1 MOL      0.288128
    154 H66         4.7970    5.1940   -1.3500 h1        1 MOL      0.081390
    155 H67         5.6140    7.1430   -0.2190 hc        1 MOL     -0.009687
    156 H68         4.3770    7.0180    0.9780 hc        1 MOL     -0.009687
    157 H69         2.5340    7.2620   -0.5600 hc        1 MOL      0.045151
    158 H70         3.6260    7.0510   -1.9060 hc        1 MOL      0.045151
    159 N14         6.3300    3.4890    0.3250 n         1 MOL     -0.519526
    160 C53         6.1490    2.8270   -0.8950 c3        1 MOL     -0.068058
    161 C54         6.7310    3.6420   -2.0320 c         1 MOL      0.435635
    162 O24         7.7540    4.3470   -1.9080 o         1 MOL     -0.539760
    163 C55         6.8510    1.4990   -0.7540 c3        1 MOL     -0.018605
    164 C56         6.1180    0.6160    0.2030 c3        1 MOL      0.068592
    165 C57         6.8390   -0.7230    0.4980 c         1 MOL      0.609311
    166 O25         7.5750   -0.8420    1.5550 o         1 MOL     -0.701417
    167 O26         6.7720   -1.6770   -0.3380 o         1 MOL     -0.701417
    168 H71         7.1320    3.1980    0.8670 hn        1 MOL      0.356708
    169 H72         5.1060    2.6240   -1.1210 h1        1 MOL      0.127824
    170 H73         7.8670    1.5780   -0.3470 hc        1 MOL      0.005755
    171 H74         6.8210    1.0340   -1.7410 hc        1 MOL      0.005755
    172 H75         5.1500    0.3550   -0.2220 hc        1 MOL     -0.023831
    173 H76         5.9530    1.1590    1.1430 hc        1 MOL     -0.023831
    174 N15         6.1340    3.4410   -3.1840 n         1 MOL     -0.235279
    175 C58         6.3260    4.2220   -4.4110 c3        1 MOL     -0.286774
    176 H77         5.3630    4.3790   -4.8960 h1        1 MOL      0.119259
    177 H78         6.7680    5.1880   -4.1610 h1        1 MOL      0.119259
    178 H79         6.9890    3.6820   -5.0860 h1        1 MOL      0.119259
    179 H80         5.3980    2.7470   -3.1360 hn        1 MOL      0.260241
    180 Ca1         7.8540   -3.4770    1.3060 Ca        1 MOL      1.636329
    181 O27         9.8120   -5.1340    2.0620 oh        1 MOL     -0.807422
    182 H81        10.1430   -5.0520    2.9590 ho        1 MOL      0.381914
    183 H82        10.4430   -5.7030    1.6160 ho        1 MOL      0.381914
    184 O28        10.1270   -2.7970    0.1060 oh        1 MOL     -0.807422
    185 H83        10.8270   -3.4420    0.0400 ho        1 MOL      0.381914
    186 H84        10.3900   -2.0970   -0.5060 ho        1 MOL      0.381914
    187 O29         9.0410   -2.6890    3.7930 oh        1 MOL     -0.807422
    188 H85         8.6960   -2.8710    4.6690 ho        1 MOL      0.381914
    189 H86         9.3630   -1.7940    3.8460 ho        1 MOL      0.381914
    190 O30         7.4780   -5.7210    3.5560 oh        1 MOL     -0.807422
    191 H87         7.2240   -5.7570    4.4790 ho        1 MOL      0.381914
    192 H88         8.1390   -6.4060    3.4640 ho        1 MOL      0.381914
@<TRIPOS>BOND
     1    1    2 1   
     2    1    4 1   
     3    1    5 1   
     4    1    6 1   
     5    2    3 2   
     6    2    7 1   
     7    7    8 1   
     8    7   15 1   
     9    8    9 1   
    10    8   11 1   
    11    8   16 1   
    12    9   10 2   
    13    9   19 1   
    14   11   12 1   
    15   11   17 1   
    16   11   18 1   
    17   12   13 1   
    18   12   14 1   
    19   19   20 1   
    20   19   27 1   
    21   20   21 1   
    22   20   23 1   
    23   20   28 1   
    24   21   22 2   
    25   21   38 1   
    26   23   24 1   
    27   23   25 1   
    28   23   29 1   
    29   24   26 1   
    30   24   30 1   
    31   24   31 1   
    32   25   32 1   
    33   25   33 1   
    34   25   34 1   
    35   26   35 1   
    36   26   36 1   
    37   26   37 1   
    38   38   39 1   
    39   38   46 1   
    40   39   40 1   
    41   39   42 1   
    42   39   47 1   
    43   40   41 2   
    44   40   50 1   
    45   42   43 1   
    46   42   48 1   
    47   42   49 1   
    48   43   44 1   
    49   43   45 1   
    50   50   51 1   
    51   50   54 1   
    52   51   52 1   
    53   51   55 1   
    54   51   56 1   
    55   52   53 2   
    56   52   57 1   
    57   57   58 1   
    58   57   65 1   
    59   58   59 1   
    60   58   61 1   
    61   58   66 1   
    62   59   60 2   
    63   59   69 1   
    64   61   62 1   
    65   61   67 1   
    66   61   68 1   
    67   62   63 1   
    68   62   64 1   
    69   69   70 1   
    70   69   73 1   
    71   70   71 1   
    72   70   74 1   
    73   70   75 1   
    74   71   72 2   
    75   71   76 1   
    76   76   77 1   
    77   76   85 1   
    78   77   78 1   
    79   77   80 1   
    80   77   86 1   
    81   78   79 2   
    82   78   93 1   
    83   80   81 1   
    84   80   87 1   
    85   80   88 1   
    86   81   82 1   
    87   81   89 1   
    88   81   90 1   
    89   82   83 1   
    90   82   84 2   
    91   83   91 1   
    92   83   92 1   
    93   93   94 1   
    94   93  100 1   
    95   94   95 1   
    96   94   97 1   
    97   94  101 1   
    98   95   96 2   
    99   95  109 1   
   100   97   98 1   
   101   97   99 1   
   102   97  102 1   
   103   98  103 1   
   104   98  104 1   
   105   98  105 1   
   106   99  106 1   
   107   99  107 1   
   108   99  108 1   
   109  109  110 1   
   110  109  117 1   
   111  110  111 1   
   112  110  113 1   
   113  110  118 1   
   114  111  112 2   
   115  111  123 1   
   116  113  114 1   
   117  113  119 1   
   118  113  120 1   
   119  114  115 1   
   120  114  116 2   
   121  115  121 1   
   122  115  122 1   
   123  123  124 1   
   124  123  135 1   
   125  124  125 1   
   126  124  127 1   
   127  124  136 1   
   128  125  126 2   
   129  125  144 1   
   130  127  128 1   
   131  127  137 1   
   132  127  138 1   
   133  128  129 ar  
   134  128  130 ar  
   135  129  131 ar  
   136  129  139 1   
   137  130  132 ar  
   138  130  140 1   
   139  131  133 ar  
   140  131  141 1   
   141  132  133 ar  
   142  132  142 1   
   143  133  134 1   
   144  134  143 1   
   145  144  145 1   
   146  144  153 1   
   147  145  146 1   
   148  145  148 1   
   149  145  154 1   
   150  146  147 2   
   151  146  159 1   
   152  148  149 1   
   153  148  155 1   
   154  148  156 1   
   155  149  150 1   
   156  149  157 1   
   157  149  158 1   
   158  150  151 1   
   159  150  152 1   
   160  159  160 1   
   161  159  168 1   
   162  160  161 1   
   163  160  163 1   
   164  160  169 1   
   165  161  162 2   
   166  161  174 1   
   167  163  164 1   
   168  163  170 1   
   169  163  171 1   
   170  164  165 1   
   171  164  172 1   
   172  164  173 1   
   173  165  166 1   
   174  165  167 1   
   175  174  175 1   
   176  174  179 1   
   177  175  176 1   
   178  175  177 1   
   179  175  178 1   
   180  181  182 1   
   181  181  183 1   
   182  184  185 1   
   183  184  186 1   
   184  187  188 1   
   185  187  189 1   
   186  190  191 1   
   187  190  192 1   
@<TRIPOS>SUBSTRUCTURE
     1 MOL         1 TEMP              0 ****  ****    0 ROOT
