@<TRIPOS>MOLECULE
MOL
  189   185     1     0     0
SMALL
resp


@<TRIPOS>ATOM
      1 C1          8.9950    1.6670    1.4260 c3        1 MOL     -0.583811
      2 C2          7.9620    0.9620    0.5430 c         1 MOL      0.806362
      3 O1          6.8870    0.6680    1.0030 o         1 MOL     -0.732273
      4 H1          9.9010    1.0640    1.4780 hc        1 MOL      0.146529
      5 H2          9.2310    2.6430    1.0010 hc        1 MOL      0.146529
      6 H3          8.5880    1.7970    2.4290 hc        1 MOL      0.146529
      7 N1          8.3370    0.5480   -0.6350 n         1 MOL     -0.492827
      8 C3          7.3790   -0.0170   -1.6500 c3        1 MOL     -0.072788
      9 C4          7.1580   -1.5420   -1.5730 c         1 MOL      0.486401
     10 O2          7.5170   -2.3150   -2.4120 o         1 MOL     -0.462541
     11 C5          7.8120    0.5300   -3.0120 c3        1 MOL     -0.221594
     12 C6          9.1490   -0.0400   -3.4860 c         1 MOL      0.720129
     13 O3          9.3030   -0.0710   -4.7450 o         1 MOL     -0.657648
     14 O4         10.0360   -0.3950   -2.6680 o         1 MOL     -0.657648
     15 H4          9.3190    0.5170   -0.8610 hn        1 MOL      0.249834
     16 H5          6.4050    0.4390   -1.4830 h1        1 MOL      0.103594
     17 H6          7.9600    1.6020   -3.0050 hc        1 MOL      0.093283
     18 H7          7.0210    0.2590   -3.7130 hc        1 MOL      0.093283
     19 N2          6.5110   -1.9160   -0.4700 n         1 MOL     -0.222665
     20 C7          6.2060   -3.3080   -0.0260 c3        1 MOL      0.017150
     21 C8          4.6740   -3.7730   -0.2650 c         1 MOL      0.517778
     22 O5          4.3910   -4.8100   -0.7910 o         1 MOL     -0.529417
     23 C9          6.7330   -3.5170    1.4410 c3        1 MOL      0.227685
     24 C10         8.2600   -3.4450    1.5250 c3        1 MOL     -0.392869
     25 C11         8.7480   -3.9990    2.8720 c3        1 MOL      0.032874
     26 C12        10.2750   -3.6600    2.9270 c3        1 MOL     -0.046923
     27 N3         10.6960   -3.9050    4.3240 n4        1 MOL     -0.181373
     28 H8          6.4390   -1.1690    0.2090 hn        1 MOL      0.252712
     29 H9          6.8170   -3.9570   -0.6570 h1        1 MOL      0.041015
     30 H10         6.3930   -4.4740    1.8140 hc        1 MOL     -0.054303
     31 H11         6.2470   -2.7210    2.0050 hc        1 MOL     -0.054303
     32 H12         8.6680   -2.4610    1.3060 hc        1 MOL      0.126022
     33 H13         8.5100   -4.1510    0.7310 hc        1 MOL      0.126022
     34 H14         8.5400   -5.0730    2.8430 hc        1 MOL      0.047475
     35 H15         8.2300   -3.5320    3.7070 hc        1 MOL      0.047475
     36 H16        10.4470   -2.6170    2.6400 hx        1 MOL      0.111528
     37 H17        10.7980   -4.3620    2.2740 hx        1 MOL      0.111528
     38 H18        10.3490   -3.1310    4.8610 hn        1 MOL      0.234208
     39 H19        10.3200   -4.7610    4.7060 hn        1 MOL      0.234208
     40 H20        11.7070   -3.8690    4.3640 hn        1 MOL      0.234208
     41 N4          3.7560   -2.9460    0.1620 n         1 MOL     -0.375774
     42 C13         3.8140   -1.7610    0.9720 c3        1 MOL     -0.023037
     43 C14         3.6350   -0.5340    0.1170 c         1 MOL      0.075566
     44 O6          3.2930   -0.6220   -1.0900 o         1 MOL     -0.418373
     45 C15         2.6580   -1.8130    1.9040 c3        1 MOL     -0.177887
     46 C16         1.3130   -2.0150    1.2370 c         1 MOL      0.708720
     47 O7          0.7500   -1.0650    0.6560 o         1 MOL     -0.662056
     48 O8          0.7820   -3.1290    1.4480 o         1 MOL     -0.662056
     49 H21         2.8330   -3.3260    0.0360 hn        1 MOL      0.312850
     50 H22         4.7840   -1.6640    1.4570 h1        1 MOL      0.119805
     51 H23         2.6120   -0.9250    2.5330 hc        1 MOL      0.023340
     52 H24         2.8210   -2.7130    2.5020 hc        1 MOL      0.023340
     53 N5          3.9780    0.5710    0.7320 n         1 MOL      0.024401
     54 C17         4.1180    1.8290   -0.0500 c3        1 MOL     -0.127450
     55 C18         2.8160    2.2930   -0.7110 c         1 MOL      0.527882
     56 O9          1.7340    1.7880   -0.4960 o         1 MOL     -0.620275
     57 H25         4.2760    0.5610    1.7010 hn        1 MOL      0.217366
     58 H26         4.9130    1.8080   -0.7860 h1        1 MOL      0.090542
     59 H27         4.4350    2.4920    0.7530 h1        1 MOL      0.090542
     60 N6          3.0030    3.3210   -1.5360 n         1 MOL     -0.449420
     61 C19         2.0080    4.1980   -2.0610 c3        1 MOL      0.422225
     62 C20         2.5540    5.6290   -2.1470 c         1 MOL      0.317230
     63 O10         3.7810    5.7990   -2.3760 o         1 MOL     -0.503614
     64 C21         1.5790    3.7990   -3.4840 c3        1 MOL     -0.231253
     65 C22         1.0820    2.3360   -3.5080 c         1 MOL      0.662900
     66 O11         0.0730    1.8950   -2.9340 o         1 MOL     -0.671233
     67 O12         1.8200    1.5040   -4.1490 o         1 MOL     -0.671233
     68 H28         3.9490    3.6390   -1.6770 hn        1 MOL      0.264785
     69 H29         1.0760    4.1350   -1.5100 h1        1 MOL     -0.078229
     70 H30         2.3640    3.8260   -4.2360 hc        1 MOL      0.061751
     71 H31         0.6940    4.3690   -3.7660 hc        1 MOL      0.061751
     72 N7          1.7680    6.7070   -2.0390 n         1 MOL     -0.350671
     73 C23         0.3300    6.6700   -1.9970 c3        1 MOL     -0.051242
     74 C24        -0.2610    6.2160   -0.6800 c         1 MOL      0.600557
     75 O13         0.5100    6.2960    0.3270 o         1 MOL     -0.520076
     76 H32         2.1770    7.6250   -2.1080 hn        1 MOL      0.323038
     77 H33        -0.1680    6.0880   -2.7630 h1        1 MOL      0.053618
     78 H34        -0.0440    7.6930   -2.0720 h1        1 MOL      0.053618
     79 N8         -1.5360    5.7920   -0.6150 n         1 MOL     -0.437101
     80 C25        -2.1120    5.1130    0.4800 c3        1 MOL     -0.156451
     81 C26        -1.3480    3.7510    0.8380 c         1 MOL      0.435201
     82 O14        -0.8690    3.0500   -0.0420 o         1 MOL     -0.488487
     83 C27        -3.5860    4.9140    0.2880 c3        1 MOL      0.386196
     84 C28        -3.9300    4.1730   -0.9660 c3        1 MOL     -0.052168
     85 O15        -4.3520    6.0390    0.1070 oh        1 MOL     -0.606704
     86 H35        -2.0570    5.9350   -1.4680 hn        1 MOL      0.285249
     87 H36        -1.8860    5.7310    1.3480 h1        1 MOL      0.094198
     88 H37        -4.0770    4.4800    1.1630 h1        1 MOL     -0.031762
     89 H38        -4.1520    6.5930    0.8720 ho        1 MOL      0.373756
     90 H39        -4.9720    3.8650   -1.0020 hc        1 MOL      0.024641
     91 H40        -3.8350    4.7520   -1.8850 hc        1 MOL      0.024641
     92 H41        -3.2370    3.3320   -1.0560 hc        1 MOL      0.024641
     93 N9         -1.3660    3.4450    2.1970 n         1 MOL     -0.403163
     94 C29        -0.8730    2.2260    2.9670 c3        1 MOL      0.038720
     95 C30        -1.8070    1.0680    2.5810 c         1 MOL      0.330934
     96 O16        -1.9930    0.7390    1.4230 o         1 MOL     -0.492582
     97 C31         0.6760    1.9880    2.7070 c3        1 MOL      0.305083
     98 C32         1.4820    3.3020    2.4360 c3        1 MOL     -0.024866
     99 C33         1.3190    1.1350    3.7470 c3        1 MOL     -0.428967
    100 C34         1.3910    4.2750    3.6440 c3        1 MOL     -0.164897
    101 H42        -1.8280    4.1260    2.7740 hn        1 MOL      0.246752
    102 H43        -0.8620    2.4220    4.0360 h1        1 MOL      0.050596
    103 H44         0.7430    1.4280    1.7700 hc        1 MOL     -0.063327
    104 H45         1.2150    3.8280    1.5250 hc        1 MOL      0.035500
    105 H46         2.5150    2.9860    2.2590 hc        1 MOL      0.035500
    106 H47         0.8160    0.1850    3.9150 hc        1 MOL      0.097750
    107 H48         2.3670    0.8920    3.5670 hc        1 MOL      0.097750
    108 H49         1.3810    1.5960    4.7360 hc        1 MOL      0.097750
    109 H50         0.4230    4.7770    3.6070 hc        1 MOL      0.035905
    110 H51         1.4300    3.8040    4.6290 hc        1 MOL      0.035905
    111 H52         2.2130    4.9900    3.5770 hc        1 MOL      0.035905
    112 N10        -2.0710    0.3140    3.5970 n         1 MOL     -0.288196
    113 C35        -2.7260   -0.9230    3.5130 c3        1 MOL     -0.153778
    114 C36        -4.1970   -0.9750    2.9110 c         1 MOL      0.634929
    115 O17        -4.7450   -2.0580    2.7160 o         1 MOL     -0.584568
    116 C37        -2.8380   -1.5700    4.9080 c3        1 MOL      0.476494
    117 C38        -3.6400   -0.7690    5.8760 c3        1 MOL     -0.557342
    118 O18        -1.6190   -1.6110    5.5460 oh        1 MOL     -0.625971
    119 H53        -1.8570    0.5790    4.5460 hn        1 MOL      0.239369
    120 H54        -2.1150   -1.5230    2.8360 h1        1 MOL      0.117162
    121 H55        -3.1050   -2.6140    4.7650 h1        1 MOL     -0.001593
    122 H56        -1.0350   -2.2700    5.1550 ho        1 MOL      0.402635
    123 H57        -3.5740   -1.2430    6.8580 hc        1 MOL      0.154768
    124 H58        -3.1080    0.1810    5.9900 hc        1 MOL      0.154768
    125 H59        -4.6770   -0.7850    5.5470 hc        1 MOL      0.154768
    126 N11        -4.8060    0.1510    2.5870 n         1 MOL     -0.377364
    127 C39        -6.1590    0.1370    1.9710 c3        1 MOL     -0.084573
    128 C40        -6.2180   -0.5870    0.6190 c         1 MOL      0.564242
    129 O19        -5.7300   -0.1570   -0.4200 o         1 MOL     -0.562424
    130 C41        -6.7580    1.4680    1.7200 c3        1 MOL      0.522881
    131 C42        -8.2580    1.3810    1.3520 c3        1 MOL     -0.234365
    132 O20        -6.5710    2.2310    2.8770 oh        1 MOL     -0.662369
    133 H60        -4.6690    1.0620    3.0180 hn        1 MOL      0.216751
    134 H61        -6.7570   -0.4840    2.6450 h1        1 MOL      0.066807
    135 H62        -6.2290    2.0150    0.9380 h1        1 MOL     -0.078807
    136 H63        -5.9860    2.9540    2.6520 ho        1 MOL      0.412571
    137 H64        -8.7290    2.3250    1.6100 hc        1 MOL      0.047789
    138 H65        -8.4590    1.0480    0.3340 hc        1 MOL      0.047789
    139 H66        -8.6920    0.5000    1.8330 hc        1 MOL      0.047789
    140 N12        -6.8380   -1.7910    0.6990 n         1 MOL     -0.182603
    141 C43        -7.2280   -2.6270   -0.4720 c3        1 MOL      0.025652
    142 C44        -6.0120   -2.9200   -1.4040 c         1 MOL      0.533517
    143 O21        -6.0890   -2.7170   -2.5950 o         1 MOL     -0.524693
    144 C45        -8.4360   -2.0760   -1.2280 c3        1 MOL     -0.419774
    145 C46        -9.8140   -2.1790   -0.5930 c3        1 MOL      0.434641
    146 C47       -10.9700   -1.6050   -1.4240 c3        1 MOL     -0.346132
    147 C48       -10.9270   -0.0770   -1.7180 c3        1 MOL      0.204044
    148 N13       -12.0850    0.3920   -2.4540 n4        1 MOL     -0.198458
    149 H67        -7.2170   -2.1200    1.5680 hn        1 MOL      0.187264
    150 H68        -7.6090   -3.5800   -0.0950 h1        1 MOL      0.054761
    151 H69        -8.5230   -2.7440   -2.0840 hc        1 MOL      0.138535
    152 H70        -8.2700   -1.0400   -1.5040 hc        1 MOL      0.138535
    153 H71        -9.7480   -1.5260    0.2780 hc        1 MOL     -0.082954
    154 H72       -10.0100   -3.1690   -0.1850 hc        1 MOL     -0.082954
    155 H73       -11.8890   -1.9280   -0.9470 hc        1 MOL      0.092268
    156 H74       -10.7860   -2.1600   -2.3480 hc        1 MOL      0.092268
    157 H75        -9.9760   -0.0020   -2.2300 hx        1 MOL      0.009520
    158 H76       -10.8540    0.4520   -0.7760 hx        1 MOL      0.009520
    159 H77       -12.8780    0.4780   -1.8370 hn        1 MOL      0.206823
    160 H78       -11.8260    1.3140   -2.7960 hn        1 MOL      0.206823
    161 H79       -12.3220   -0.2140   -3.2270 hn        1 MOL      0.206823
    162 N14        -4.9160   -3.2880   -0.7600 n         1 MOL     -0.410064
    163 C49        -3.6200   -3.3070   -1.4940 c3        1 MOL      0.138379
    164 C50        -2.3760   -2.8360   -0.6530 c         1 MOL      0.563210
    165 O22        -2.0210   -1.6820   -0.8220 o         1 MOL     -0.729408
    166 C51        -3.3950   -4.6950   -2.1780 c3        1 MOL     -0.210992
    167 C52        -4.5010   -4.9120   -3.2950 c3        1 MOL     -0.308927
    168 C53        -3.9400   -6.2260   -3.9910 c         1 MOL      0.626996
    169 O23        -4.2760   -7.3160   -3.5080 o         1 MOL     -0.590926
    170 O24        -2.9710   -6.1370   -4.7670 o         1 MOL     -0.590926
    171 H80        -4.9770   -3.3970    0.2390 hn        1 MOL      0.230439
    172 H81        -3.7620   -2.6300   -2.3360 h1        1 MOL      0.124861
    173 H82        -3.4230   -5.5690   -1.5160 hc        1 MOL      0.127738
    174 H83        -2.4260   -4.6680   -2.6700 hc        1 MOL      0.127738
    175 H84        -4.5500   -4.0930   -4.0100 hc        1 MOL      0.090572
    176 H85        -5.4890   -5.1550   -2.8800 hc        1 MOL      0.090572
    177 N15        -1.7680   -3.5710    0.2560 n         1 MOL     -0.419074
    178 C54        -2.2060   -4.8250    0.9140 c3        1 MOL      0.007698
    179 H86        -3.0990   -5.2050    0.4150 h1        1 MOL      0.039880
    180 H87        -1.4110   -5.5680    0.8480 h1        1 MOL      0.039880
    181 H88        -2.4340   -4.6270    1.9610 h1        1 MOL      0.039880
    182 H89        -0.9570   -3.1150    0.6670 hn        1 MOL      0.343327
    183 Ca1        -0.5290    0.5240   -0.8020 Ca        1 MOL      1.800090
    184 O25        -3.2180    0.8300   -1.7630 oh        1 MOL     -0.922281
    185 H90        -3.8680    0.3420   -1.2690 ho        1 MOL      0.446152
    186 H91        -3.7290    1.3800   -2.3540 ho        1 MOL      0.446152
    187 O26         0.9720   -0.7390   -2.7300 oh        1 MOL     -0.922281
    188 H92         1.7710   -1.1590   -2.4030 ho        1 MOL      0.446152
    189 H93         1.2830    0.0470   -3.1770 ho        1 MOL      0.446152
@<TRIPOS>BOND
     1    1    2 1   
     2    1    4 1   
     3    1    5 1   
     4    1    6 1   
     5    2    3 2   
     6    2    7 1   
     7    7    8 1   
     8    7   15 1   
     9    8    9 1   
    10    8   11 1   
    11    8   16 1   
    12    9   10 2   
    13    9   19 1   
    14   11   12 1   
    15   11   17 1   
    16   11   18 1   
    17   12   13 1   
    18   12   14 1   
    19   19   20 1   
    20   19   28 1   
    21   20   21 1   
    22   20   23 1   
    23   20   29 1   
    24   21   22 2   
    25   21   41 1   
    26   23   24 1   
    27   23   30 1   
    28   23   31 1   
    29   24   25 1   
    30   24   32 1   
    31   24   33 1   
    32   25   26 1   
    33   25   34 1   
    34   25   35 1   
    35   26   27 1   
    36   26   36 1   
    37   26   37 1   
    38   27   38 1   
    39   27   39 1   
    40   27   40 1   
    41   41   42 1   
    42   41   49 1   
    43   42   43 1   
    44   42   45 1   
    45   42   50 1   
    46   43   44 2   
    47   43   53 1   
    48   45   46 1   
    49   45   51 1   
    50   45   52 1   
    51   46   47 1   
    52   46   48 1   
    53   53   54 1   
    54   53   57 1   
    55   54   55 1   
    56   54   58 1   
    57   54   59 1   
    58   55   56 2   
    59   55   60 1   
    60   60   61 1   
    61   60   68 1   
    62   61   62 1   
    63   61   64 1   
    64   61   69 1   
    65   62   63 2   
    66   62   72 1   
    67   64   65 1   
    68   64   70 1   
    69   64   71 1   
    70   65   66 1   
    71   65   67 1   
    72   72   73 1   
    73   72   76 1   
    74   73   74 1   
    75   73   77 1   
    76   73   78 1   
    77   74   75 2   
    78   74   79 1   
    79   79   80 1   
    80   79   86 1   
    81   80   81 1   
    82   80   83 1   
    83   80   87 1   
    84   81   82 2   
    85   81   93 1   
    86   83   84 1   
    87   83   85 1   
    88   83   88 1   
    89   84   90 1   
    90   84   91 1   
    91   84   92 1   
    92   85   89 1   
    93   93   94 1   
    94   93  101 1   
    95   94   95 1   
    96   94   97 1   
    97   94  102 1   
    98   95   96 2   
    99   95  112 1   
   100   97   98 1   
   101   97   99 1   
   102   97  103 1   
   103   98  100 1   
   104   98  104 1   
   105   98  105 1   
   106   99  106 1   
   107   99  107 1   
   108   99  108 1   
   109  100  109 1   
   110  100  110 1   
   111  100  111 1   
   112  112  113 1   
   113  112  119 1   
   114  113  114 1   
   115  113  116 1   
   116  113  120 1   
   117  114  115 2   
   118  114  126 1   
   119  116  117 1   
   120  116  118 1   
   121  116  121 1   
   122  117  123 1   
   123  117  124 1   
   124  117  125 1   
   125  118  122 1   
   126  126  127 1   
   127  126  133 1   
   128  127  128 1   
   129  127  130 1   
   130  127  134 1   
   131  128  129 2   
   132  128  140 1   
   133  130  131 1   
   134  130  132 1   
   135  130  135 1   
   136  131  137 1   
   137  131  138 1   
   138  131  139 1   
   139  132  136 1   
   140  140  141 1   
   141  140  149 1   
   142  141  142 1   
   143  141  144 1   
   144  141  150 1   
   145  142  143 2   
   146  142  162 1   
   147  144  145 1   
   148  144  151 1   
   149  144  152 1   
   150  145  146 1   
   151  145  153 1   
   152  145  154 1   
   153  146  147 1   
   154  146  155 1   
   155  146  156 1   
   156  147  148 1   
   157  147  157 1   
   158  147  158 1   
   159  148  159 1   
   160  148  160 1   
   161  148  161 1   
   162  162  163 1   
   163  162  171 1   
   164  163  164 1   
   165  163  166 1   
   166  163  172 1   
   167  164  165 2   
   168  164  177 1   
   169  166  167 1   
   170  166  173 1   
   171  166  174 1   
   172  167  168 1   
   173  167  175 1   
   174  167  176 1   
   175  168  169 1   
   176  168  170 1   
   177  177  178 1   
   178  177  182 1   
   179  178  179 1   
   180  178  180 1   
   181  178  181 1   
   182  184  185 1   
   183  184  186 1   
   184  187  188 1   
   185  187  189 1   
@<TRIPOS>SUBSTRUCTURE
     1 MOL         1 TEMP              0 ****  ****    0 ROOT
