@<TRIPOS>MOLECULE
MOL
  181   177     1     0     0
SMALL
resp


@<TRIPOS>ATOM
      1 C1        -11.1110    6.8400   -0.6170 c3        1 MOL     -0.423512
      2 C2        -10.8740    5.6270   -1.5460 c         1 MOL      0.781847
      3 O1        -10.7080    5.8590   -2.7590 o         1 MOL     -0.595633
      4 H1        -11.7500    6.5400    0.2150 hc        1 MOL      0.112351
      5 H2        -10.1560    7.1960   -0.2310 hc        1 MOL      0.112351
      6 H3        -11.5980    7.6380   -1.1770 hc        1 MOL      0.112351
      7 N1        -11.0460    4.3650   -1.0770 n         1 MOL     -0.790670
      8 C3        -11.0550    3.9780    0.3620 c3        1 MOL      0.343597
      9 C4        -11.9530    2.7520    0.6810 c         1 MOL      0.363372
     10 O2        -12.0870    2.4140    1.8720 o         1 MOL     -0.525623
     11 C5         -9.6230    3.8630    0.9060 c3        1 MOL     -0.292568
     12 C6         -8.8040    2.7760    0.2150 c         1 MOL      0.797488
     13 O3         -9.3470    1.7990   -0.2610 o         1 MOL     -0.778779
     14 O4         -7.5150    2.9440    0.1460 o         1 MOL     -0.778779
     15 H4        -10.8010    3.6070   -1.6930 hn        1 MOL      0.371447
     16 H5        -11.5350    4.7620    0.9550 h1        1 MOL      0.028337
     17 H6         -9.7030    3.7510    1.9950 hc        1 MOL      0.075534
     18 H7         -9.1840    4.8500    0.7940 hc        1 MOL      0.075534
     19 N2        -12.4680    1.9940   -0.3000 n         1 MOL     -0.352522
     20 C7        -13.3280    0.8570   -0.1270 c3        1 MOL      0.102343
     21 C8        -12.6030   -0.3750    0.4660 c         1 MOL      0.407700
     22 O5        -13.2580   -1.2680    1.0000 o         1 MOL     -0.561102
     23 C9        -13.9890    0.5370   -1.4460 c3        1 MOL     -0.244589
     24 H8        -12.2270    2.2110   -1.2530 hn        1 MOL      0.271339
     25 H9        -14.1240    1.1200    0.5700 h1        1 MOL      0.081853
     26 H10       -14.2290    1.4860   -1.9250 hc        1 MOL      0.076108
     27 H11       -13.2700    0.0090   -2.0760 hc        1 MOL      0.076108
     28 H12       -14.8900   -0.0730   -1.3520 hc        1 MOL      0.076108
     29 N3        -11.2870   -0.4000    0.6780 n         1 MOL      0.080624
     30 C10       -10.5450   -1.5540    1.2680 c3        1 MOL     -0.356280
     31 C11        -9.1460   -1.1720    1.8870 c         1 MOL      0.535377
     32 O6         -8.7910   -0.0220    1.8570 o         1 MOL     -0.459309
     33 C12       -10.2880   -2.6470    0.1840 c3        1 MOL     -0.038319
     34 C13        -9.6780   -2.1030   -1.0690 c         1 MOL      0.598273
     35 O7        -10.3120   -2.3670   -2.1480 o         1 MOL     -0.670075
     36 O8         -8.5760   -1.5210   -0.9530 o         1 MOL     -0.670075
     37 H13       -10.7320    0.4000    0.4330 hn        1 MOL      0.075937
     38 H14       -11.0990   -1.9200    2.1320 h1        1 MOL      0.135173
     39 H15       -11.2650   -3.0740   -0.0230 hc        1 MOL      0.037450
     40 H16        -9.6230   -3.4340    0.5520 hc        1 MOL      0.037450
     41 N4         -8.3540   -2.1520    2.4100 n         1 MOL     -0.371725
     42 C14        -7.0140   -2.0390    3.0150 c3        1 MOL     -0.190030
     43 C15        -5.8900   -1.8650    2.0220 c         1 MOL      0.845201
     44 O9         -6.1010   -1.6550    0.8540 o         1 MOL     -0.690370
     45 H17        -8.7120   -3.0890    2.4780 hn        1 MOL      0.280382
     46 H18        -6.8340   -2.9540    3.5760 h1        1 MOL      0.087000
     47 H19        -7.0550   -1.1840    3.6900 h1        1 MOL      0.087000
     48 N5         -4.6620   -1.9730    2.4800 n         1 MOL     -0.739920
     49 C16        -3.3870   -1.5870    1.7410 c3        1 MOL      0.444791
     50 C17        -2.4460   -2.7780    1.3910 c         1 MOL      0.405621
     51 O10        -2.2290   -3.6250    2.2260 o         1 MOL     -0.549562
     52 C18        -2.7040   -0.6460    2.6580 c3        1 MOL     -0.519525
     53 C19        -1.1750   -0.4930    2.4860 c         1 MOL      0.687075
     54 N6         -0.4550   -0.9530    3.5020 n         1 MOL     -0.720520
     55 O11        -0.6810    0.1040    1.5430 o         1 MOL     -0.516428
     56 H20        -4.6010   -2.2360    3.4540 hn        1 MOL      0.328650
     57 H21        -3.6570   -1.1260    0.7930 h1        1 MOL      0.038493
     58 H22        -2.7310   -0.9600    3.7000 hc        1 MOL      0.114287
     59 H23        -3.1270    0.3490    2.5780 hc        1 MOL      0.114287
     60 H24        -0.9020   -1.5400    4.1980 hn        1 MOL      0.358080
     61 H25         0.5230   -0.7410    3.4340 hn        1 MOL      0.358080
     62 N7         -1.9420   -2.8550    0.2300 n         1 MOL     -0.281423
     63 C20        -0.9750   -3.9280   -0.2070 c3        1 MOL     -0.086372
     64 C21        -0.4080   -3.7100   -1.5960 c         1 MOL      0.506381
     65 O12        -0.9080   -2.9570   -2.4330 o         1 MOL     -0.548341
     66 H26        -2.3290   -2.1540   -0.3890 hn        1 MOL      0.210725
     67 H27        -1.3760   -4.9050    0.0730 h1        1 MOL      0.125200
     68 H28        -0.1060   -3.8690    0.4590 h1        1 MOL      0.125200
     69 N8          0.7140   -4.2510   -1.8520 n         1 MOL     -0.382797
     70 C22         1.7450   -4.9530   -0.9910 c3        1 MOL     -0.077212
     71 C23         3.1350   -4.2710   -0.9100 c         1 MOL      0.608846
     72 O13         3.8130   -4.5110    0.0670 o         1 MOL     -0.572476
     73 C24         1.9570   -6.3480   -1.4460 c3        1 MOL      0.413979
     74 C25         0.8050   -7.2650   -1.2880 c3        1 MOL     -0.416945
     75 O14         2.3930   -6.4150   -2.7700 oh        1 MOL     -0.601438
     76 H29         1.0740   -4.0490   -2.7720 hn        1 MOL      0.303834
     77 H30         1.3260   -5.0400    0.0120 h1        1 MOL      0.050523
     78 H31         2.7600   -6.7070   -0.8050 h1        1 MOL     -0.015178
     79 H32         3.0520   -7.0930   -2.6330 ho        1 MOL      0.387660
     80 H33         0.3890   -7.1320   -0.2840 hc        1 MOL      0.093741
     81 H34        -0.0510   -7.0910   -1.9490 hc        1 MOL      0.093741
     82 H35         1.2260   -8.2660   -1.3550 hc        1 MOL      0.093741
     83 N9          3.4760   -3.3620   -1.8270 n         1 MOL     -0.314335
     84 C26         4.7250   -2.5760   -1.8410 c3        1 MOL      0.022822
     85 C27         4.3290   -1.1040   -1.5100 c         1 MOL      0.317893
     86 O15         3.4420   -0.4790   -2.0670 o         1 MOL     -0.511927
     87 C28         5.3640   -2.6360   -3.2720 c3        1 MOL      0.178290
     88 C29         5.2020   -3.9200   -4.0120 c3        1 MOL     -0.361660
     89 C30         6.8420   -2.3720   -3.2650 c3        1 MOL     -0.051317
     90 C31         5.8230   -5.0560   -3.3310 c3        1 MOL      0.234060
     91 H36         2.8080   -3.2630   -2.5780 hn        1 MOL      0.217998
     92 H37         5.4460   -2.8800   -1.0780 h1        1 MOL      0.119478
     93 H38         4.8760   -1.8850   -3.8820 hc        1 MOL      0.062700
     94 H39         5.6510   -3.8960   -5.0050 hc        1 MOL      0.078866
     95 H40         4.1660   -4.2080   -4.1660 hc        1 MOL      0.078866
     96 H41         7.3560   -2.9950   -2.5320 hc        1 MOL      0.008082
     97 H42         7.2050   -2.4200   -4.2980 hc        1 MOL      0.008082
     98 H43         6.9590   -1.3320   -2.9580 hc        1 MOL      0.008082
     99 H44         5.3240   -5.9770   -3.6600 hc        1 MOL     -0.073936
    100 H45         6.8840   -5.2900   -3.4680 hc        1 MOL     -0.073936
    101 H46         5.5460   -5.0780   -2.2750 hc        1 MOL     -0.073936
    102 N10         5.0790   -0.3820   -0.6400 n         1 MOL     -0.083009
    103 C32         6.1680   -0.8310    0.1900 c3        1 MOL     -0.028843
    104 C33         7.2490    0.1680    0.4700 c         1 MOL      0.625731
    105 O16         6.8740    1.2970    0.7880 o         1 MOL     -0.497888
    106 C34         5.5570   -1.4980    1.4860 c3        1 MOL     -0.303350
    107 C35         4.4690   -0.6250    2.1730 c         1 MOL      0.676483
    108 O17         4.7400    0.0580    3.1700 o         1 MOL     -0.699508
    109 O18         3.3920   -0.5900    1.5620 o         1 MOL     -0.699508
    110 H47         4.6970    0.5210   -0.3940 hn        1 MOL      0.269342
    111 H48         6.7010   -1.6650   -0.2690 h1        1 MOL      0.002656
    112 H49         6.4110   -1.6270    2.1490 hc        1 MOL      0.059982
    113 H50         5.1060   -2.4520    1.2230 hc        1 MOL      0.059982
    114 N11         8.5220   -0.2780    0.3930 n         1 MOL     -0.602779
    115 C36         9.7030    0.3950    0.9010 c3        1 MOL      0.626062
    116 C37        10.7460    0.8960   -0.1460 c         1 MOL      0.354966
    117 O19        11.0510    0.0280   -0.9340 o         1 MOL     -0.547334
    118 C38        10.4180   -0.3850    2.0370 c3        1 MOL     -0.300231
    119 C39         9.7360   -0.7960    3.2660 ca        1 MOL      0.304658
    120 C40         9.8400    0.0100    4.3930 ca        1 MOL     -0.304294
    121 C41         9.1360   -2.0600    3.3740 ca        1 MOL     -0.304294
    122 C42         9.2600   -0.4100    5.5980 ca        1 MOL      0.022514
    123 C43         8.7040   -2.5980    4.6070 ca        1 MOL      0.022514
    124 C44         8.7850   -1.7510    5.6990 ca        1 MOL     -0.258448
    125 H51         8.7400   -1.2040    0.0590 hn        1 MOL      0.283249
    126 H52         9.3110    1.2270    1.4870 h1        1 MOL     -0.076403
    127 H53        11.3720    0.1050    2.2110 hc        1 MOL      0.030427
    128 H54        10.7610   -1.2950    1.5340 hc        1 MOL      0.030427
    129 H55        10.2750    1.0020    4.3440 ha        1 MOL      0.127156
    130 H56         9.2640   -2.6470    2.4730 ha        1 MOL      0.127156
    131 H57         9.3740    0.2580    6.4400 ha        1 MOL      0.088518
    132 H58         8.3270   -3.6080    4.6950 ha        1 MOL      0.088518
    133 H59         8.4560   -2.1190    6.6570 ha        1 MOL      0.121079
    134 N12        11.2870    2.1530   -0.1270 n         1 MOL     -0.011448
    135 C45        10.9220    3.2000    0.8070 c3        1 MOL     -0.000099
    136 C46         9.5050    3.8090    0.5980 c         1 MOL      0.416671
    137 O20         8.9350    4.4730    1.4690 o         1 MOL     -0.534865
    138 C47        12.0800    4.2450    0.5990 c3        1 MOL     -0.103685
    139 C48        13.2870    3.3840    0.0930 c3        1 MOL     -0.036236
    140 C49        12.5380    2.3550   -0.8120 c3        1 MOL     -0.129036
    141 H60        11.0390    2.8420    1.8370 h1        1 MOL      0.041849
    142 H61        11.7740    5.0370   -0.0790 hc        1 MOL      0.054941
    143 H62        12.3580    4.6650    1.5690 hc        1 MOL      0.054941
    144 H63        13.9560    4.0170   -0.4910 hc        1 MOL      0.031074
    145 H64        13.8520    2.9070    0.9080 hc        1 MOL      0.031074
    146 H65        12.2670    2.7200   -1.8050 h1        1 MOL      0.075994
    147 H66        13.1230    1.4390   -0.8510 h1        1 MOL      0.075994
    148 N13         8.9440    3.6850   -0.6340 n         1 MOL     -0.380780
    149 C50         7.5880    4.0770   -1.0340 c3        1 MOL      0.178559
    150 C51         7.4650    5.6080   -1.0800 c         1 MOL      0.501127
    151 O21         7.9530    6.2200   -1.9850 o         1 MOL     -0.584526
    152 C52         7.4050    3.5270   -2.4710 c3        1 MOL      0.151187
    153 C53         7.1610    2.0140   -2.4660 c3        1 MOL     -0.104816
    154 C54         7.0020    1.4600   -3.9000 c         1 MOL      0.687430
    155 O22         7.9920    0.9100   -4.4870 o         1 MOL     -0.731980
    156 O23         5.8930    1.4780   -4.4750 o         1 MOL     -0.731980
    157 H67         9.3880    3.0220   -1.2450 hn        1 MOL      0.247650
    158 H68         6.8160    3.6410   -0.4070 h1        1 MOL      0.081707
    159 H69         8.2930    3.8290   -3.0350 hc        1 MOL     -0.040885
    160 H70         6.5140    4.0460   -2.8170 hc        1 MOL     -0.040885
    161 H71         6.2330    1.7850   -1.9450 hc        1 MOL     -0.069893
    162 H72         7.9930    1.4650   -2.0250 hc        1 MOL     -0.069893
    163 N14         6.8220    6.3420   -0.1420 n         1 MOL     -0.417374
    164 C55         6.0250    5.8190    1.0340 c3        1 MOL     -0.112126
    165 H73         5.8010    4.7640    0.8800 h1        1 MOL      0.073829
    166 H74         6.6070    5.9370    1.9490 h1        1 MOL      0.073829
    167 H75         5.0940    6.3790    1.1200 h1        1 MOL      0.073829
    168 H76         6.9370    7.3450   -0.1470 hn        1 MOL      0.281400
    169 Ca1        -7.0910    0.4850   -0.4900 Ca        1 MOL      1.733393
    170 O24        -6.2140    1.0560    2.0010 oh        1 MOL     -0.802138
    171 H77        -5.4970    1.5220    2.4230 ho        1 MOL      0.405301
    172 H78        -6.9700    1.2150    2.5750 ho        1 MOL      0.405301
    173 O25        -7.3120    1.1770   -3.1190 oh        1 MOL     -0.802138
    174 H79        -7.7430    1.9970   -3.3580 ho        1 MOL      0.405301
    175 H80        -7.2530    0.6930   -3.9410 ho        1 MOL      0.405301
    176 O26        -4.7620    1.8920   -1.0510 oh        1 MOL     -0.802138
    177 H81        -4.5090    2.3570   -1.8480 ho        1 MOL      0.405301
    178 H82        -3.9700    1.9200   -0.5110 ho        1 MOL      0.405301
    179 O27        -6.0280   -1.1820   -2.3160 oh        1 MOL     -0.802138
    180 H83        -5.1430   -1.5390   -2.3490 ho        1 MOL      0.405301
    181 H84        -6.5550   -1.7890   -2.8320 ho        1 MOL      0.405301
@<TRIPOS>BOND
     1    1    2 1   
     2    1    4 1   
     3    1    5 1   
     4    1    6 1   
     5    2    3 2   
     6    2    7 1   
     7    7    8 1   
     8    7   15 1   
     9    8    9 1   
    10    8   11 1   
    11    8   16 1   
    12    9   10 2   
    13    9   19 1   
    14   11   12 1   
    15   11   17 1   
    16   11   18 1   
    17   12   13 1   
    18   12   14 1   
    19   19   20 1   
    20   19   24 1   
    21   20   21 1   
    22   20   23 1   
    23   20   25 1   
    24   21   22 2   
    25   21   29 1   
    26   23   26 1   
    27   23   27 1   
    28   23   28 1   
    29   29   30 1   
    30   29   37 1   
    31   30   31 1   
    32   30   33 1   
    33   30   38 1   
    34   31   32 2   
    35   31   41 1   
    36   33   34 1   
    37   33   39 1   
    38   33   40 1   
    39   34   35 1   
    40   34   36 1   
    41   41   42 1   
    42   41   45 1   
    43   42   43 1   
    44   42   46 1   
    45   42   47 1   
    46   43   44 2   
    47   43   48 1   
    48   48   49 1   
    49   48   56 1   
    50   49   50 1   
    51   49   52 1   
    52   49   57 1   
    53   50   51 2   
    54   50   62 1   
    55   52   53 1   
    56   52   58 1   
    57   52   59 1   
    58   53   54 1   
    59   53   55 2   
    60   54   60 1   
    61   54   61 1   
    62   62   63 1   
    63   62   66 1   
    64   63   64 1   
    65   63   67 1   
    66   63   68 1   
    67   64   65 2   
    68   64   69 1   
    69   69   70 1   
    70   69   76 1   
    71   70   71 1   
    72   70   73 1   
    73   70   77 1   
    74   71   72 2   
    75   71   83 1   
    76   73   74 1   
    77   73   75 1   
    78   73   78 1   
    79   74   80 1   
    80   74   81 1   
    81   74   82 1   
    82   75   79 1   
    83   83   84 1   
    84   83   91 1   
    85   84   85 1   
    86   84   87 1   
    87   84   92 1   
    88   85   86 2   
    89   85  102 1   
    90   87   88 1   
    91   87   89 1   
    92   87   93 1   
    93   88   90 1   
    94   88   94 1   
    95   88   95 1   
    96   89   96 1   
    97   89   97 1   
    98   89   98 1   
    99   90   99 1   
   100   90  100 1   
   101   90  101 1   
   102  102  103 1   
   103  102  110 1   
   104  103  104 1   
   105  103  106 1   
   106  103  111 1   
   107  104  105 2   
   108  104  114 1   
   109  106  107 1   
   110  106  112 1   
   111  106  113 1   
   112  107  108 1   
   113  107  109 1   
   114  114  115 1   
   115  114  125 1   
   116  115  116 1   
   117  115  118 1   
   118  115  126 1   
   119  116  117 2   
   120  116  134 1   
   121  118  119 1   
   122  118  127 1   
   123  118  128 1   
   124  119  120 ar  
   125  119  121 ar  
   126  120  122 ar  
   127  120  129 1   
   128  121  123 ar  
   129  121  130 1   
   130  122  124 ar  
   131  122  131 1   
   132  123  124 ar  
   133  123  132 1   
   134  124  133 1   
   135  134  135 1   
   136  134  140 1   
   137  135  136 1   
   138  135  138 1   
   139  135  141 1   
   140  136  137 2   
   141  136  148 1   
   142  138  139 1   
   143  138  142 1   
   144  138  143 1   
   145  139  140 1   
   146  139  144 1   
   147  139  145 1   
   148  140  146 1   
   149  140  147 1   
   150  148  149 1   
   151  148  157 1   
   152  149  150 1   
   153  149  152 1   
   154  149  158 1   
   155  150  151 2   
   156  150  163 1   
   157  152  153 1   
   158  152  159 1   
   159  152  160 1   
   160  153  154 1   
   161  153  161 1   
   162  153  162 1   
   163  154  155 1   
   164  154  156 1   
   165  163  164 1   
   166  163  168 1   
   167  164  165 1   
   168  164  166 1   
   169  164  167 1   
   170  170  171 1   
   171  170  172 1   
   172  173  174 1   
   173  173  175 1   
   174  176  177 1   
   175  176  178 1   
   176  179  180 1   
   177  179  181 1   
@<TRIPOS>SUBSTRUCTURE
     1 MOL         1 TEMP              0 ****  ****    0 ROOT
