@<TRIPOS>MOLECULE
MOL
  179   176     1     0     0
SMALL
resp


@<TRIPOS>ATOM
      1 C1          3.0240    0.3340    6.4730 c3        1 MOL     -0.433941
      2 C2          2.8230    0.7210    5.0050 c         1 MOL      0.780053
      3 O1          3.6820    0.3950    4.2020 o         1 MOL     -0.606104
      4 H1          2.0810   -0.0220    6.8870 hc        1 MOL      0.115798
      5 H2          3.7720   -0.4560    6.5430 hc        1 MOL      0.115798
      6 H3          3.3600    1.2050    7.0360 hc        1 MOL      0.115798
      7 N1          1.7470    1.3540    4.6190 n         1 MOL     -0.630011
      8 C3          1.4250    1.5490    3.2010 c3        1 MOL     -0.006893
      9 C4          2.0900    2.7840    2.4840 c         1 MOL      0.632381
     10 O2          1.7790    3.9860    2.7130 o         1 MOL     -0.542269
     11 C5         -0.0910    1.6330    3.3020 c3        1 MOL     -0.152208
     12 C6         -0.6750    1.8420    1.8920 c         1 MOL      0.849320
     13 O3         -1.8960    2.0000    1.6570 o         1 MOL     -0.837506
     14 O4          0.0320    1.7030    0.8700 o         1 MOL     -0.837506
     15 H4          0.9250    1.4680    5.2030 hn        1 MOL      0.340484
     16 H5          1.7500    0.7460    2.5460 h1        1 MOL      0.087640
     17 H6         -0.4280    2.4720    3.9120 hc        1 MOL      0.038608
     18 H7         -0.4160    0.6860    3.7340 hc        1 MOL      0.038608
     19 N2          3.0220    2.5220    1.5340 n         1 MOL     -0.403854
     20 C7          3.7410    3.5720    0.7760 c3        1 MOL     -0.200040
     21 C8          2.9250    4.6580    0.1000 c         1 MOL      0.520368
     22 O5          3.3090    5.8060    0.0740 o         1 MOL     -0.571079
     23 C9          4.6830    3.0310   -0.3050 c3        1 MOL      0.130296
     24 C10         5.7180    4.1020   -0.7760 c3        1 MOL     -0.021704
     25 C11         6.6210    3.5420   -1.9130 c3        1 MOL      0.031816
     26 C12         7.5030    4.6300   -2.5430 c3        1 MOL     -0.009200
     27 N3          8.3480    5.3390   -1.5330 n4        1 MOL     -0.303765
     28 H8          3.3580    1.5780    1.4340 hn        1 MOL      0.286791
     29 H9          4.3610    3.9660    1.5850 h1        1 MOL      0.131191
     30 H10         4.0790    2.7470   -1.1640 hc        1 MOL      0.008957
     31 H11         5.2560    2.2140    0.1210 hc        1 MOL      0.008957
     32 H12         6.2190    4.2820    0.1710 hc        1 MOL      0.002935
     33 H13         5.1780    4.9650   -1.1710 hc        1 MOL      0.002935
     34 H14         5.9870    3.1770   -2.7270 hc        1 MOL      0.031207
     35 H15         7.3110    2.7700   -1.5650 hc        1 MOL      0.031207
     36 H16         7.0180    5.4000   -3.1340 hx        1 MOL      0.097212
     37 H17         8.1530    4.1170   -3.2490 hx        1 MOL      0.097212
     38 H18         9.0360    4.6940   -1.1710 hn        1 MOL      0.298295
     39 H19         8.8670    6.1410   -1.8570 hn        1 MOL      0.298295
     40 H20         7.8040    5.7870   -0.8120 hn        1 MOL      0.298295
     41 N4          1.7060    4.2830   -0.2910 n         1 MOL     -0.212609
     42 C13         0.8950    5.2060   -1.1390 c3        1 MOL      0.016830
     43 C14        -0.2930    5.7400   -0.3370 c         1 MOL      0.461914
     44 O6         -0.8640    6.6960   -0.8190 o         1 MOL     -0.559196
     45 C15         0.4660    4.3900   -2.3370 c3        1 MOL     -0.353083
     46 C16        -0.2520    3.0590   -2.0170 c         1 MOL      0.807166
     47 O7         -1.1760    3.0460   -1.2580 o         1 MOL     -0.758669
     48 O8          0.2280    2.0040   -2.4840 o         1 MOL     -0.758669
     49 H21         1.4420    3.3100   -0.1860 hn        1 MOL      0.213065
     50 H22         1.5520    6.0270   -1.3910 h1        1 MOL      0.104232
     51 H23         1.3210    4.1700   -2.9690 hc        1 MOL      0.086620
     52 H24        -0.2030    5.0470   -2.8890 hc        1 MOL      0.086620
     53 N5         -0.5930    5.2950    0.8680 n         1 MOL     -0.152405
     54 C17        -1.8290    5.5400    1.5940 c3        1 MOL     -0.274512
     55 C18        -3.2340    5.1090    1.1310 c         1 MOL      0.543813
     56 O9         -4.2350    5.6410    1.6480 o         1 MOL     -0.576785
     57 H25        -0.0280    4.5720    1.2900 hn        1 MOL      0.170319
     58 H26        -1.8180    6.6190    1.7890 h1        1 MOL      0.124776
     59 H27        -1.7240    5.0280    2.5460 h1        1 MOL      0.124776
     60 N6         -3.4110    4.2450    0.1110 n         1 MOL     -0.282636
     61 C19        -4.6630    4.1230   -0.6130 c3        1 MOL      0.011860
     62 C20        -4.7220    2.6660   -1.1120 c         1 MOL      0.409843
     63 O10        -3.8060    1.8500   -0.9720 o         1 MOL     -0.447041
     64 C21        -4.8610    5.2510   -1.6840 c3        1 MOL     -0.336390
     65 C22        -3.9400    5.1960   -2.8720 c         1 MOL      0.652680
     66 N7         -2.8450    5.9220   -2.8520 n         1 MOL     -0.774798
     67 O11        -4.0960    4.3830   -3.7700 o         1 MOL     -0.589394
     68 H28        -2.5570    3.8300   -0.2300 hn        1 MOL      0.494772
     69 H29        -5.5630    4.1230   -0.0030 h1        1 MOL      0.088595
     70 H30        -4.6700    6.2640   -1.2980 hc        1 MOL      0.106054
     71 H31        -5.8460    5.2480   -2.1580 hc        1 MOL      0.106054
     72 H32        -2.7470    6.6370   -2.1380 hn        1 MOL      0.362453
     73 H33        -2.1030    5.7000   -3.4910 hn        1 MOL      0.362453
     74 N8         -5.8280    2.2760   -1.7240 n         1 MOL     -0.335115
     75 C23        -6.0930    0.8630   -2.0950 c3        1 MOL     -0.138399
     76 C24        -5.9210   -0.1520   -0.9750 c         1 MOL      0.539376
     77 O12        -6.1160    0.0960    0.2290 o         1 MOL     -0.493659
     78 H34        -6.4780    2.9820   -2.0210 hn        1 MOL      0.297797
     79 H35        -5.3520    0.5510   -2.8310 h1        1 MOL      0.091307
     80 H36        -7.0860    0.8040   -2.5390 h1        1 MOL      0.091307
     81 N9         -5.5790   -1.3640   -1.3460 n         1 MOL     -0.435758
     82 C25        -5.2660   -2.5260   -0.4270 c3        1 MOL     -0.034400
     83 C26        -4.0510   -2.1940    0.4040 c         1 MOL      0.744028
     84 O13        -3.3190   -1.2960   -0.0640 o         1 MOL     -0.597003
     85 C27        -5.1780   -3.7740   -1.2770 c3        1 MOL     -0.231242
     86 C28        -6.5990   -4.3580   -1.5650 ca        1 MOL      0.280651
     87 C29        -7.0910   -4.1950   -2.8670 ca        1 MOL     -0.321404
     88 C30        -7.2270   -5.1600   -0.6160 ca        1 MOL     -0.321404
     89 C31        -8.3560   -4.7780   -3.2680 ca        1 MOL     -0.144976
     90 C32        -8.4800   -5.7610   -0.9890 ca        1 MOL     -0.144976
     91 C33        -9.0220   -5.5360   -2.2820 ca        1 MOL      0.224838
     92 O14       -10.2110   -6.0860   -2.6520 oh        1 MOL     -0.437293
     93 H37        -5.4410   -1.5380   -2.3260 hn        1 MOL      0.268894
     94 H38        -6.1690   -2.7140    0.1490 h1        1 MOL      0.092626
     95 H39        -4.6700   -4.5710   -0.7300 hc        1 MOL      0.063159
     96 H40        -4.5750   -3.5870   -2.1660 hc        1 MOL      0.063159
     97 H41        -6.4850   -3.7160   -3.6210 ha        1 MOL      0.172372
     98 H42        -6.7710   -5.3490    0.3430 ha        1 MOL      0.172372
     99 H43        -8.7910   -4.5510   -4.2290 ha        1 MOL      0.146236
    100 H44        -8.9100   -6.3390   -0.1810 ha        1 MOL      0.146236
    101 H45       -10.6650   -6.3940   -1.8690 ho        1 MOL      0.345813
    102 N10        -3.8440   -2.8170    1.5860 n         1 MOL     -0.709488
    103 C34        -2.9640   -2.4580    2.6680 c3        1 MOL      0.226200
    104 C35        -1.4800   -2.0930    2.2990 c         1 MOL      0.612390
    105 O15        -1.2070   -1.0470    1.6680 o         1 MOL     -0.584643
    106 C36        -3.5230   -1.3560    3.6270 c3        1 MOL      0.108539
    107 C37        -2.7390   -1.1550    4.9400 c3        1 MOL     -0.346462
    108 C38        -5.0180   -1.5020    3.8920 c3        1 MOL     -0.024116
    109 C39        -2.8000   -2.3150    5.9590 c3        1 MOL     -0.201400
    110 H46        -4.5370   -3.5150    1.8280 hn        1 MOL      0.331297
    111 H47        -2.8970   -3.3630    3.2820 h1        1 MOL      0.033482
    112 H48        -3.4450   -0.3620    3.1800 hc        1 MOL      0.036682
    113 H49        -3.2220   -0.3630    5.5120 hc        1 MOL      0.151324
    114 H50        -1.7390   -0.8050    4.7140 hc        1 MOL      0.151324
    115 H51        -5.4230   -0.6560    4.4580 hc        1 MOL      0.011174
    116 H52        -5.6730   -1.6510    3.0340 hc        1 MOL      0.011174
    117 H53        -5.2100   -2.3500    4.5530 hc        1 MOL      0.011174
    118 H54        -3.7740   -2.5340    6.4140 hc        1 MOL      0.062253
    119 H55        -2.4820   -3.2160    5.4490 hc        1 MOL      0.062253
    120 H56        -2.1430   -1.9670    6.7510 hc        1 MOL      0.062253
    121 N11        -0.4230   -2.8450    2.7850 n         1 MOL     -0.767807
    122 C40         0.9110   -2.2520    2.9780 c3        1 MOL      0.355900
    123 C41         1.8050   -2.2620    1.7750 c         1 MOL      0.238821
    124 O16         2.9980   -1.9090    1.8870 o         1 MOL     -0.523836
    125 C42         1.6190   -2.9350    4.1980 c3        1 MOL      0.212758
    126 O17         0.6660   -3.2950    5.1680 oh        1 MOL     -0.664027
    127 H57        -0.5790   -3.6830    3.3170 hn        1 MOL      0.315713
    128 H58         0.7550   -1.1980    3.2490 h1        1 MOL      0.108592
    129 H59         2.4820   -2.3820    4.5910 h1        1 MOL      0.050904
    130 H60         2.0210   -3.8820    3.8370 h1        1 MOL      0.050904
    131 H61         0.2440   -4.1180    4.9350 ho        1 MOL      0.403705
    132 N12         1.3680   -2.7740    0.6410 n         1 MOL     -0.305559
    133 C43         2.1310   -2.6780   -0.6420 c3        1 MOL     -0.012266
    134 C44         2.1390   -1.2200   -1.2040 c         1 MOL      0.685774
    135 O18         1.0400   -0.5410   -1.3280 o         1 MOL     -0.646224
    136 C45         1.6550   -3.6570   -1.7400 c3        1 MOL     -0.433976
    137 H62         0.4660   -3.2130    0.6530 hn        1 MOL      0.261139
    138 H63         3.1490   -3.0160   -0.4300 h1        1 MOL      0.174784
    139 H64         1.6720   -4.6640   -1.3300 hc        1 MOL      0.125653
    140 H65         0.6840   -3.3480   -2.1470 hc        1 MOL      0.125653
    141 H66         2.2890   -3.6720   -2.6220 hc        1 MOL      0.125653
    142 N13         3.2320   -0.6840   -1.6960 n         1 MOL     -0.642302
    143 C46         4.5550   -1.2000   -1.6930 c3        1 MOL      0.124023
    144 C47         4.7480   -2.5300   -2.5110 c         1 MOL      0.827565
    145 O19         4.3290   -2.6410   -3.6740 o         1 MOL     -0.615971
    146 C48         5.5610   -0.1630   -2.0190 c3        1 MOL     -0.268351
    147 H67         3.0530    0.2240   -2.0930 hn        1 MOL      0.376047
    148 H68         4.6590   -1.4650   -0.6350 h1        1 MOL      0.139203
    149 H69         5.4770    0.5860   -1.2380 hc        1 MOL      0.080055
    150 H70         6.5770   -0.5550   -1.9900 hc        1 MOL      0.080055
    151 H71         5.5150    0.2990   -3.0070 hc        1 MOL      0.080055
    152 N14         5.2610   -3.6240   -1.9860 n         1 MOL     -0.585630
    153 C49         5.6850   -3.7780   -0.6250 c3        1 MOL     -0.589386
    154 C50         5.6330   -5.2420   -0.0370 c         1 MOL      0.822712
    155 O20         5.5000   -5.3780    1.1530 o         1 MOL     -0.568552
    156 C51         7.1580   -3.3720   -0.5800 c3        1 MOL      0.148601
    157 C52         8.1710   -4.2840   -1.3370 c3        1 MOL     -0.184780
    158 C53         7.9100   -4.2820   -2.7970 c         1 MOL      0.701174
    159 O21         7.9010   -3.1470   -3.3570 o         1 MOL     -0.688800
    160 O22         7.6280   -5.3620   -3.4240 o         1 MOL     -0.688800
    161 H72         5.3910   -4.4210   -2.5790 hn        1 MOL      0.342161
    162 H73         5.1600   -3.1490    0.0880 h1        1 MOL      0.200445
    163 H74         7.4430   -3.4170    0.4760 hc        1 MOL     -0.008036
    164 H75         7.2560   -2.3310   -0.8860 hc        1 MOL     -0.008036
    165 H76         8.0200   -5.3310   -1.0860 hc        1 MOL      0.026257
    166 H77         9.2070   -4.1190   -1.0450 hc        1 MOL      0.026257
    167 N15         5.4680   -6.3220   -0.8510 n         1 MOL     -0.422668
    168 C54         5.4530   -7.7260   -0.4320 c3        1 MOL     -0.158167
    169 H78         4.9670   -7.8100    0.5400 h1        1 MOL      0.085649
    170 H79         4.9050   -8.3190   -1.1640 h1        1 MOL      0.085649
    171 H80         6.4760   -8.0950   -0.3580 h1        1 MOL      0.085649
    172 H81         5.5970   -6.2420   -1.8460 hn        1 MOL      0.300519
    173 Ca1        -1.4480    0.4340   -0.7860 Ca        1 MOL      1.811769
    174 O23        -1.4480   -2.0620   -1.9370 oh        1 MOL     -0.814942
    175 H82        -1.2400   -2.8610   -1.4580 ho        1 MOL      0.407556
    176 H83        -1.3970   -2.3060   -2.8630 ho        1 MOL      0.407556
    177 O24        -2.3310    0.4520   -3.2150 oh        1 MOL     -0.814942
    178 H84        -1.6500    0.6180   -3.8580 ho        1 MOL      0.407556
    179 H85        -3.0330    0.0350   -3.7070 ho        1 MOL      0.407556
@<TRIPOS>BOND
     1    1    2 1   
     2    1    4 1   
     3    1    5 1   
     4    1    6 1   
     5    2    3 2   
     6    2    7 1   
     7    7    8 1   
     8    7   15 1   
     9    8    9 1   
    10    8   11 1   
    11    8   16 1   
    12    9   10 2   
    13    9   19 1   
    14   11   12 1   
    15   11   17 1   
    16   11   18 1   
    17   12   13 1   
    18   12   14 1   
    19   19   20 1   
    20   19   28 1   
    21   20   21 1   
    22   20   23 1   
    23   20   29 1   
    24   21   22 2   
    25   21   41 1   
    26   23   24 1   
    27   23   30 1   
    28   23   31 1   
    29   24   25 1   
    30   24   32 1   
    31   24   33 1   
    32   25   26 1   
    33   25   34 1   
    34   25   35 1   
    35   26   27 1   
    36   26   36 1   
    37   26   37 1   
    38   27   38 1   
    39   27   39 1   
    40   27   40 1   
    41   41   42 1   
    42   41   49 1   
    43   42   43 1   
    44   42   45 1   
    45   42   50 1   
    46   43   44 2   
    47   43   53 1   
    48   45   46 1   
    49   45   51 1   
    50   45   52 1   
    51   46   47 1   
    52   46   48 1   
    53   53   54 1   
    54   53   57 1   
    55   54   55 1   
    56   54   58 1   
    57   54   59 1   
    58   55   56 2   
    59   55   60 1   
    60   60   61 1   
    61   60   68 1   
    62   61   62 1   
    63   61   64 1   
    64   61   69 1   
    65   62   63 2   
    66   62   74 1   
    67   64   65 1   
    68   64   70 1   
    69   64   71 1   
    70   65   66 1   
    71   65   67 2   
    72   66   72 1   
    73   66   73 1   
    74   74   75 1   
    75   74   78 1   
    76   75   76 1   
    77   75   79 1   
    78   75   80 1   
    79   76   77 2   
    80   76   81 1   
    81   81   82 1   
    82   81   93 1   
    83   82   83 1   
    84   82   85 1   
    85   82   94 1   
    86   83   84 2   
    87   83  102 1   
    88   85   86 1   
    89   85   95 1   
    90   85   96 1   
    91   86   87 ar  
    92   86   88 ar  
    93   87   89 ar  
    94   87   97 1   
    95   88   90 ar  
    96   88   98 1   
    97   89   91 ar  
    98   89   99 1   
    99   90   91 ar  
   100   90  100 1   
   101   91   92 1   
   102   92  101 1   
   103  102  103 1   
   104  102  110 1   
   105  103  104 1   
   106  103  106 1   
   107  103  111 1   
   108  104  105 2   
   109  104  121 1   
   110  106  107 1   
   111  106  108 1   
   112  106  112 1   
   113  107  109 1   
   114  107  113 1   
   115  107  114 1   
   116  108  115 1   
   117  108  116 1   
   118  108  117 1   
   119  109  118 1   
   120  109  119 1   
   121  109  120 1   
   122  121  122 1   
   123  121  127 1   
   124  122  123 1   
   125  122  125 1   
   126  122  128 1   
   127  123  124 2   
   128  123  132 1   
   129  125  126 1   
   130  125  129 1   
   131  125  130 1   
   132  126  131 1   
   133  132  133 1   
   134  132  137 1   
   135  133  134 1   
   136  133  136 1   
   137  133  138 1   
   138  134  135 2   
   139  134  142 1   
   140  136  139 1   
   141  136  140 1   
   142  136  141 1   
   143  142  143 1   
   144  142  147 1   
   145  143  144 1   
   146  143  146 1   
   147  143  148 1   
   148  144  145 2   
   149  144  152 1   
   150  146  149 1   
   151  146  150 1   
   152  146  151 1   
   153  152  153 1   
   154  152  161 1   
   155  153  154 1   
   156  153  156 1   
   157  153  162 1   
   158  154  155 2   
   159  154  167 1   
   160  156  157 1   
   161  156  163 1   
   162  156  164 1   
   163  157  158 1   
   164  157  165 1   
   165  157  166 1   
   166  158  159 1   
   167  158  160 1   
   168  167  168 1   
   169  167  172 1   
   170  168  169 1   
   171  168  170 1   
   172  168  171 1   
   173  174  175 1   
   174  174  176 1   
   175  177  178 1   
   176  177  179 1   
@<TRIPOS>SUBSTRUCTURE
     1 MOL         1 TEMP              0 ****  ****    0 ROOT
