@<TRIPOS>MOLECULE
MOL
  175   173     1     0     0
SMALL
resp


@<TRIPOS>ATOM
      1 C1         -7.3820    7.6780    2.0450 c3        1 MOL     -0.342468
      2 C2         -8.0470    6.7800    0.9880 c         1 MOL      0.707145
      3 O1         -7.9500    7.1580   -0.2280 o         1 MOL     -0.618346
      4 H1         -6.6930    7.0840    2.6450 hc        1 MOL      0.083345
      5 H2         -6.8330    8.4800    1.5490 hc        1 MOL      0.083345
      6 H3         -8.1470    8.1080    2.6910 hc        1 MOL      0.083345
      7 N1         -8.6030    5.6210    1.2530 n         1 MOL     -0.620201
      8 C3         -9.4150    4.8050    0.2970 c3        1 MOL      0.429076
      9 C4         -8.4590    3.7770   -0.4200 c         1 MOL      0.498173
     10 O2         -8.8600    2.7290   -0.8090 o         1 MOL     -0.520931
     11 C5        -10.5140    4.0610    1.1050 c3        1 MOL     -0.524676
     12 C6        -11.6540    3.5650    0.2480 c         1 MOL      0.829760
     13 O3        -11.9900    4.2700   -0.6900 o         1 MOL     -0.757315
     14 O4        -12.3630    2.5670    0.5350 o         1 MOL     -0.757315
     15 H4         -8.6180    5.2290    2.1790 hn        1 MOL      0.291215
     16 H5         -9.8000    5.5480   -0.4010 h1        1 MOL      0.008335
     17 H6        -11.1100    4.7080    1.7530 hc        1 MOL      0.097768
     18 H7        -10.1030    3.2180    1.6640 hc        1 MOL      0.097768
     19 N2         -7.1590    4.1470   -0.4820 n         1 MOL     -0.641893
     20 C7         -6.0230    3.3650   -0.9870 c3        1 MOL      0.459980
     21 C8         -5.3370    2.4920    0.1130 c         1 MOL      0.523702
     22 O5         -4.8670    3.0440    1.0960 o         1 MOL     -0.565630
     23 C9         -4.9260    4.2420   -1.6500 c3        1 MOL     -0.331782
     24 H8         -6.9410    5.0530   -0.0900 hn        1 MOL      0.288770
     25 H9         -6.4020    2.7600   -1.8090 h1        1 MOL      0.025088
     26 H10        -4.6680    5.0770   -1.0020 hc        1 MOL      0.080522
     27 H11        -4.1010    3.6440   -2.0320 hc        1 MOL      0.080522
     28 H12        -5.3710    4.5970   -2.5840 hc        1 MOL      0.080522
     29 N3         -5.1350    1.1850   -0.0880 n         1 MOL     -0.452631
     30 C10        -5.3180    0.3720   -1.3010 c3        1 MOL     -0.200421
     31 C11        -5.5810   -1.1120   -0.7910 c         1 MOL      0.602569
     32 O6         -4.9480   -1.6370    0.1120 o         1 MOL     -0.586139
     33 C12        -4.1150    0.3940   -2.2120 c3        1 MOL     -0.064009
     34 C13        -2.7810   -0.1750   -1.6200 c         1 MOL      0.641296
     35 O7         -2.0160    0.5160   -0.9840 o         1 MOL     -0.695666
     36 O8         -2.5370   -1.3520   -1.8140 o         1 MOL     -0.695666
     37 H13        -4.5910    0.7250    0.6250 hn        1 MOL      0.327625
     38 H14        -6.1260    0.7620   -1.9200 h1        1 MOL      0.093353
     39 H15        -3.9560    1.4490   -2.4130 hc        1 MOL      0.024334
     40 H16        -4.2620   -0.1220   -3.1650 hc        1 MOL      0.024334
     41 N4         -6.4850   -1.8290   -1.4730 n         1 MOL     -0.390381
     42 C14        -6.9570   -3.1950   -1.0080 c3        1 MOL      0.002837
     43 C15        -6.6160   -4.2710   -2.0960 c         1 MOL      0.470471
     44 O9         -7.4730   -4.5280   -2.9780 o         1 MOL     -0.533721
     45 H17        -7.0720   -1.3540   -2.1370 hn        1 MOL      0.303712
     46 H18        -8.0350   -3.1450   -0.8150 h1        1 MOL      0.083699
     47 H19        -6.5700   -3.3850   -0.0100 h1        1 MOL      0.083699
     48 N5         -5.4170   -4.9160   -2.1650 n         1 MOL     -0.542806
     49 C16        -4.1930   -4.6100   -1.3720 c3        1 MOL      0.286981
     50 C17        -4.2790   -5.0570    0.1030 c         1 MOL      0.489201
     51 O10        -4.8590   -6.0450    0.4450 o         1 MOL     -0.559429
     52 C18        -3.0360   -5.1960   -2.1750 c3        1 MOL     -0.303216
     53 C19        -1.7410   -4.5720   -1.9170 c         1 MOL      0.753936
     54 N6         -0.7150   -4.8160   -2.7320 n         1 MOL     -0.768177
     55 O11        -1.5600   -3.9180   -0.9170 o         1 MOL     -0.687795
     56 H20        -5.3600   -5.6030   -2.9050 hn        1 MOL      0.318354
     57 H21        -4.0140   -3.5320   -1.3350 h1        1 MOL      0.026607
     58 H22        -3.2160   -4.9770   -3.2260 hc        1 MOL      0.082369
     59 H23        -2.9400   -6.2740   -2.0250 hc        1 MOL      0.082369
     60 H24        -0.7830   -5.4730   -3.5110 hn        1 MOL      0.346123
     61 H25         0.2510   -4.6440   -2.5150 hn        1 MOL      0.346123
     62 N7         -3.6090   -4.3100    0.9460 n         1 MOL     -0.235053
     63 C20        -3.3140   -4.6220    2.3420 c3        1 MOL     -0.269039
     64 C21        -1.9310   -5.1850    2.5860 c         1 MOL      0.641996
     65 O12        -1.7210   -5.7710    3.6810 o         1 MOL     -0.594318
     66 H26        -3.1590   -3.4460    0.6630 hn        1 MOL      0.310272
     67 H27        -4.0020   -5.3060    2.8340 h1        1 MOL      0.117612
     68 H28        -3.2870   -3.6590    2.8540 h1        1 MOL      0.117612
     69 N8         -0.8730   -5.0390    1.7120 n         1 MOL     -0.298322
     70 C22         0.5220   -5.1630    2.0800 c3        1 MOL     -0.079711
     71 C23         1.2670   -3.7650    2.0080 c         1 MOL      0.393006
     72 O13         0.8860   -2.8080    1.4050 o         1 MOL     -0.489839
     73 C24         1.1960   -6.2270    1.3030 c3        1 MOL      0.457434
     74 C25         0.6240   -7.6170    1.5750 c3        1 MOL     -0.469677
     75 O14         1.0480   -5.8960   -0.0290 oh        1 MOL     -0.610082
     76 H29        -1.0460   -4.6520    0.7940 hn        1 MOL      0.230673
     77 H30         0.7150   -5.5120    3.0900 h1        1 MOL      0.051546
     78 H31         2.2490   -6.3090    1.5900 h1        1 MOL     -0.023206
     79 H32         1.9130   -5.8950   -0.4380 ho        1 MOL      0.406859
     80 H33        -0.2460   -7.8470    0.9480 hc        1 MOL      0.109784
     81 H34         1.3630   -8.3860    1.3540 hc        1 MOL      0.109784
     82 H35         0.2690   -7.7510    2.6010 hc        1 MOL      0.109784
     83 N9          2.4890   -3.7350    2.5930 n         1 MOL     -0.221655
     84 C26         3.4700   -2.6330    2.3310 c3        1 MOL      0.011934
     85 C27         4.2710   -3.0310    1.1290 c         1 MOL      0.237240
     86 O15         4.9910   -4.0720    1.2400 o         1 MOL     -0.565964
     87 C28         4.2470   -2.2460    3.6130 c3        1 MOL      0.147156
     88 C29         5.2070   -1.0350    3.3160 c3        1 MOL      0.240836
     89 C30         3.3340   -1.7870    4.7730 c3        1 MOL     -0.406994
     90 C31         5.8520   -0.1440    4.4720 c3        1 MOL     -0.406104
     91 H36         2.7410   -4.5410    3.1430 hn        1 MOL      0.217555
     92 H37         2.8720   -1.7660    2.0280 h1        1 MOL      0.051638
     93 H38         4.8400   -3.0930    3.9620 hc        1 MOL      0.007445
     94 H39         4.7790   -0.4060    2.5350 hc        1 MOL     -0.062590
     95 H40         5.9940   -1.4900    2.7090 hc        1 MOL     -0.062590
     96 H41         2.5960   -2.5790    4.9410 hc        1 MOL      0.093630
     97 H42         4.0590   -1.6380    5.5790 hc        1 MOL      0.093630
     98 H43         2.8670   -0.8110    4.6170 hc        1 MOL      0.093630
     99 H44         6.7060    0.4230    4.0910 hc        1 MOL      0.096929
    100 H45         5.1330    0.5760    4.8640 hc        1 MOL      0.096929
    101 H46         6.1670   -0.9280    5.1590 hc        1 MOL      0.096929
    102 N10         4.1960   -2.2520    0.0530 n         1 MOL      0.006209
    103 C32         4.9830   -2.5620   -1.1730 c3        1 MOL      0.015367
    104 C33         6.0540   -1.4980   -1.4790 c         1 MOL      0.534925
    105 O16         6.7350   -1.6670   -2.4770 o         1 MOL     -0.552740
    106 C34         3.9740   -2.6600   -2.3290 c3        1 MOL     -0.170739
    107 C35         2.5890   -3.3630   -2.1240 c         1 MOL      0.745522
    108 O17         1.5870   -2.6500   -1.9200 o         1 MOL     -0.705045
    109 O18         2.5500   -4.6190   -2.1970 o         1 MOL     -0.705045
    110 H47         3.4760   -1.5610    0.1960 hn        1 MOL      0.097106
    111 H48         5.4430   -3.5460   -1.0540 h1        1 MOL      0.097003
    112 H49         4.5390   -3.0840   -3.1570 hc        1 MOL      0.022837
    113 H50         3.7830   -1.6120   -2.5470 hc        1 MOL      0.022837
    114 N11         6.2120   -0.4400   -0.7090 n         1 MOL     -0.543398
    115 C36         6.9760    0.7460   -1.0990 c3        1 MOL      0.414338
    116 C37         6.4280    2.0850   -0.5220 c         1 MOL      0.374448
    117 O19         6.1800    2.1150    0.6380 o         1 MOL     -0.513086
    118 C38         8.4850    0.5310   -0.6680 c3        1 MOL     -0.356317
    119 C39         9.4710    1.5980   -0.9600 ca        1 MOL      0.165384
    120 C40         9.6080    2.7220   -0.1390 ca        1 MOL     -0.166628
    121 C41        10.2850    1.4920   -2.1280 ca        1 MOL     -0.166628
    122 C42        10.4690    3.7910   -0.4360 ca        1 MOL     -0.138148
    123 C43        11.1970    2.5220   -2.3820 ca        1 MOL     -0.138148
    124 C44        11.2670    3.6580   -1.5730 ca        1 MOL     -0.089976
    125 H51         5.6210   -0.3530    0.1050 hn        1 MOL      0.247135
    126 H52         6.8840    0.7990   -2.1810 h1        1 MOL     -0.017302
    127 H53         8.9440   -0.3500   -1.1030 hc        1 MOL      0.122040
    128 H54         8.4050    0.4560    0.4190 hc        1 MOL      0.122040
    129 H55         8.9720    2.7260    0.7400 ha        1 MOL      0.125324
    130 H56        10.2340    0.6570   -2.7950 ha        1 MOL      0.125324
    131 H57        10.5330    4.6850    0.1580 ha        1 MOL      0.113222
    132 H58        11.7400    2.4550   -3.3080 ha        1 MOL      0.113222
    133 H59        12.0140    4.3960   -1.8180 ha        1 MOL      0.089966
    134 N12         6.3620    3.1610   -1.3130 n         1 MOL     -0.148898
    135 C45         6.2040    4.5810   -0.8550 c3        1 MOL     -0.064052
    136 C46         4.8910    4.9830   -0.1990 c         1 MOL      0.500775
    137 O20         4.8020    6.1270    0.2800 o         1 MOL     -0.537250
    138 C47         6.4160    5.4500   -2.0610 c3        1 MOL     -0.072977
    139 C48         7.0140    4.5820   -3.1660 c3        1 MOL      0.044690
    140 C49         6.5800    3.1770   -2.7460 c3        1 MOL     -0.079531
    141 H60         6.9690    4.7620   -0.0990 h1        1 MOL      0.097605
    142 H61         5.4180    5.7640   -2.3490 hc        1 MOL      0.053323
    143 H62         6.9190    6.4030   -1.9020 hc        1 MOL      0.053323
    144 H63         6.7410    4.7970   -4.2010 hc        1 MOL      0.013324
    145 H64         8.1060    4.6480   -3.1220 hc        1 MOL      0.013324
    146 H65         5.7050    2.8350   -3.3050 h1        1 MOL      0.059315
    147 H66         7.4010    2.5240   -3.0680 h1        1 MOL      0.059315
    148 N13         3.8770    4.0470   -0.1070 n         1 MOL     -0.295274
    149 C50         2.6230    4.3560    0.5530 c3        1 MOL     -0.308731
    150 C51         2.6910    4.8390    1.9840 c         1 MOL      0.489067
    151 O21         1.6010    5.2810    2.4810 o         1 MOL     -0.530587
    152 C52         1.7160    3.0740    0.5590 c3        1 MOL     -0.058910
    153 C53         2.3450    1.8820    1.2900 c3        1 MOL     -0.131430
    154 C54         1.5730    0.6310    0.8620 c         1 MOL      0.554173
    155 O22         1.9810   -0.2390    0.0040 o         1 MOL     -0.646335
    156 O23         0.4240    0.5820    1.2060 o         1 MOL     -0.646335
    157 H67         3.9320    3.1290   -0.5260 hn        1 MOL      0.240381
    158 H68         2.1750    5.1670   -0.0290 h1        1 MOL      0.168424
    159 H69         1.4670    2.7980   -0.4640 hc        1 MOL      0.102699
    160 H70         0.7750    3.3580    1.0250 hc        1 MOL      0.102699
    161 H71         2.4280    2.0000    2.3710 hc        1 MOL      0.068101
    162 H72         3.3600    1.5930    1.0030 hc        1 MOL      0.068101
    163 N14         3.8070    4.8220    2.6760 n         1 MOL     -0.113267
    164 C55         3.8560    5.0490    4.0820 c3        1 MOL     -0.247357
    165 H73         4.7730    4.6220    4.4870 h1        1 MOL      0.098431
    166 H74         3.8350    6.1210    4.2790 h1        1 MOL      0.098431
    167 H75         2.9960    4.5750    4.5570 h1        1 MOL      0.098431
    168 H76         4.6880    4.5880    2.2360 hn        1 MOL      0.210315
    169 Ca1        -0.2860   -1.3770   -0.4580 Ca        1 MOL      1.772354
    170 O24         0.1870    0.1750   -2.5640 oh        1 MOL     -0.912866
    171 H77         0.9610    0.4180   -3.0710 ho        1 MOL      0.431140
    172 H78        -0.5040    0.7470   -2.8900 ho        1 MOL      0.431140
    173 O25        -2.3750   -1.6090    1.2710 oh        1 MOL     -0.912866
    174 H79        -3.2690   -1.6830    0.9260 ho        1 MOL      0.431140
    175 H80        -2.4770   -1.0780    2.0660 ho        1 MOL      0.431140
@<TRIPOS>BOND
     1    1    2 1   
     2    1    4 1   
     3    1    5 1   
     4    1    6 1   
     5    2    3 2   
     6    2    7 1   
     7    7    8 1   
     8    7   15 1   
     9    8    9 1   
    10    8   11 1   
    11    8   16 1   
    12    9   10 2   
    13    9   19 1   
    14   11   12 1   
    15   11   17 1   
    16   11   18 1   
    17   12   13 1   
    18   12   14 1   
    19   19   20 1   
    20   19   24 1   
    21   20   21 1   
    22   20   23 1   
    23   20   25 1   
    24   21   22 2   
    25   21   29 1   
    26   23   26 1   
    27   23   27 1   
    28   23   28 1   
    29   29   30 1   
    30   29   37 1   
    31   30   31 1   
    32   30   33 1   
    33   30   38 1   
    34   31   32 2   
    35   31   41 1   
    36   33   34 1   
    37   33   39 1   
    38   33   40 1   
    39   34   35 1   
    40   34   36 1   
    41   41   42 1   
    42   41   45 1   
    43   42   43 1   
    44   42   46 1   
    45   42   47 1   
    46   43   44 2   
    47   43   48 1   
    48   48   49 1   
    49   48   56 1   
    50   49   50 1   
    51   49   52 1   
    52   49   57 1   
    53   50   51 2   
    54   50   62 1   
    55   52   53 1   
    56   52   58 1   
    57   52   59 1   
    58   53   54 1   
    59   53   55 2   
    60   54   60 1   
    61   54   61 1   
    62   62   63 1   
    63   62   66 1   
    64   63   64 1   
    65   63   67 1   
    66   63   68 1   
    67   64   65 2   
    68   64   69 1   
    69   69   70 1   
    70   69   76 1   
    71   70   71 1   
    72   70   73 1   
    73   70   77 1   
    74   71   72 2   
    75   71   83 1   
    76   73   74 1   
    77   73   75 1   
    78   73   78 1   
    79   74   80 1   
    80   74   81 1   
    81   74   82 1   
    82   75   79 1   
    83   83   84 1   
    84   83   91 1   
    85   84   85 1   
    86   84   87 1   
    87   84   92 1   
    88   85   86 2   
    89   85  102 1   
    90   87   88 1   
    91   87   89 1   
    92   87   93 1   
    93   88   90 1   
    94   88   94 1   
    95   88   95 1   
    96   89   96 1   
    97   89   97 1   
    98   89   98 1   
    99   90   99 1   
   100   90  100 1   
   101   90  101 1   
   102  102  103 1   
   103  102  110 1   
   104  103  104 1   
   105  103  106 1   
   106  103  111 1   
   107  104  105 2   
   108  104  114 1   
   109  106  107 1   
   110  106  112 1   
   111  106  113 1   
   112  107  108 1   
   113  107  109 1   
   114  114  115 1   
   115  114  125 1   
   116  115  116 1   
   117  115  118 1   
   118  115  126 1   
   119  116  117 2   
   120  116  134 1   
   121  118  119 1   
   122  118  127 1   
   123  118  128 1   
   124  119  120 ar  
   125  119  121 ar  
   126  120  122 ar  
   127  120  129 1   
   128  121  123 ar  
   129  121  130 1   
   130  122  124 ar  
   131  122  131 1   
   132  123  124 ar  
   133  123  132 1   
   134  124  133 1   
   135  134  135 1   
   136  134  140 1   
   137  135  136 1   
   138  135  138 1   
   139  135  141 1   
   140  136  137 2   
   141  136  148 1   
   142  138  139 1   
   143  138  142 1   
   144  138  143 1   
   145  139  140 1   
   146  139  144 1   
   147  139  145 1   
   148  140  146 1   
   149  140  147 1   
   150  148  149 1   
   151  148  157 1   
   152  149  150 1   
   153  149  152 1   
   154  149  158 1   
   155  150  151 2   
   156  150  163 1   
   157  152  153 1   
   158  152  159 1   
   159  152  160 1   
   160  153  154 1   
   161  153  161 1   
   162  153  162 1   
   163  154  155 1   
   164  154  156 1   
   165  163  164 1   
   166  163  168 1   
   167  164  165 1   
   168  164  166 1   
   169  164  167 1   
   170  170  171 1   
   171  170  172 1   
   172  173  174 1   
   173  173  175 1   
@<TRIPOS>SUBSTRUCTURE
     1 MOL         1 TEMP              0 ****  ****    0 ROOT
