@<TRIPOS>MOLECULE
MOL
  181   177     1     0     0
SMALL
resp


@<TRIPOS>ATOM
      1 C1          5.0510   -5.6740    4.5040 c3        1 MOL     -0.259205
      2 C2          4.7140   -4.5320    3.5600 c         1 MOL      0.671712
      3 O1          3.8710   -3.7750    3.8700 o         1 MOL     -0.554322
      4 H1          6.0250   -6.0850    4.2410 hc        1 MOL      0.053427
      5 H2          5.0790   -5.3030    5.5290 hc        1 MOL      0.053427
      6 H3          4.2940   -6.4520    4.4190 hc        1 MOL      0.053427
      7 N1          5.2990   -4.3120    2.3810 n         1 MOL     -0.437930
      8 C3          6.3520   -5.2170    1.7700 c3        1 MOL      0.025540
      9 C4          5.9520   -5.4890    0.2840 c         1 MOL      0.536566
     10 O2          4.7360   -5.4740    0.0230 o         1 MOL     -0.476327
     11 C5          7.7910   -4.7070    1.9890 c3        1 MOL      0.125203
     12 C6          8.1080   -3.2750    1.4270 c         1 MOL      0.190292
     13 O3          8.4180   -3.2150    0.2070 o         1 MOL     -0.507245
     14 O4          7.9770   -2.2450    2.1590 o         1 MOL     -0.507245
     15 H4          4.9000   -3.5410    1.8600 hn        1 MOL      0.294481
     16 H5          6.3470   -6.2330    2.1720 h1        1 MOL      0.029959
     17 H6          8.5180   -5.3860    1.5570 hc        1 MOL     -0.036540
     18 H7          7.9890   -4.7870    3.0550 hc        1 MOL     -0.036540
     19 N2          6.9090   -5.7400   -0.6430 n         1 MOL     -0.502778
     20 C7          6.7130   -5.8090   -2.0700 c3        1 MOL      0.200785
     21 C8          6.0380   -4.6200   -2.6200 c         1 MOL      0.437152
     22 O5          5.2390   -4.7560   -3.5550 o         1 MOL     -0.536239
     23 C9          6.0080   -7.2240   -2.3870 c3        1 MOL     -0.393323
     24 H8          7.8500   -5.9440   -0.3380 hn        1 MOL      0.283356
     25 H9          7.7220   -5.8860   -2.4840 h1        1 MOL      0.045544
     26 H10         6.1730   -7.5800   -3.4060 hc        1 MOL      0.108374
     27 H11         6.2780   -8.0240   -1.7030 hc        1 MOL      0.108374
     28 H12         4.9460   -7.0630   -2.2460 hc        1 MOL      0.108374
     29 N3          6.3510   -3.3980   -2.2040 n         1 MOL     -0.320373
     30 C10         5.6460   -2.1080   -2.5200 c3        1 MOL      0.180654
     31 C11         6.6240   -0.9700   -2.8320 c         1 MOL      0.423977
     32 O6          7.7380   -0.9930   -2.3950 o         1 MOL     -0.563676
     33 C12         4.6220   -1.6990   -1.4480 c3        1 MOL      0.024472
     34 C13         5.1150   -1.4860   -0.0170 c         1 MOL      0.627208
     35 O7          6.2240   -0.9670    0.2130 o         1 MOL     -0.652284
     36 O8          4.2320   -1.6750    0.9160 o         1 MOL     -0.652284
     37 H13         7.0010   -3.4150   -1.4240 hn        1 MOL      0.078956
     38 H14         5.0060   -2.2540   -3.3920 h1        1 MOL     -0.004408
     39 H15         3.8820   -2.5010   -1.4830 hc        1 MOL      0.023845
     40 H16         3.9780   -0.8660   -1.7160 hc        1 MOL      0.023845
     41 N4          6.1220    0.0270   -3.6030 n         1 MOL     -0.432280
     42 C14         6.7070    1.3170   -3.5490 c3        1 MOL      0.046573
     43 C15         6.7830    1.9750   -2.1680 c         1 MOL      0.381718
     44 O9          7.0400    1.3220   -1.1520 o         1 MOL     -0.383291
     45 H17         5.2030   -0.0450   -4.0150 hn        1 MOL      0.311923
     46 H18         6.0530    1.8460   -4.2530 h1        1 MOL      0.046210
     47 H19         7.6660    1.3020   -4.0600 h1        1 MOL      0.046210
     48 N5          6.5130    3.2330   -2.1600 n         1 MOL     -0.519235
     49 C16         6.4780    4.0420   -0.9020 c3        1 MOL     -0.115110
     50 C17         5.0570    3.8850   -0.3370 c         1 MOL      0.644663
     51 O10         4.1850    3.2160   -0.9320 o         1 MOL     -0.427650
     52 C18         6.9300    5.4790   -1.2090 c3        1 MOL     -0.192033
     53 C19         8.4200    5.5120   -1.3720 c         1 MOL      0.577609
     54 N6          8.9650    5.0130   -2.3900 n         1 MOL     -0.570162
     55 O11         9.0600    6.0850   -0.5240 o         1 MOL     -0.569801
     56 H20         6.1720    3.6500   -3.0150 hn        1 MOL      0.342200
     57 H21         7.1910    3.6700   -0.1730 h1        1 MOL      0.179499
     58 H22         6.5790    6.1220   -0.4000 hc        1 MOL      0.087479
     59 H23         6.5340    5.7910   -2.1810 hc        1 MOL      0.087479
     60 H24         8.4170    4.6110   -3.1380 hn        1 MOL      0.278915
     61 H25         9.9650    4.9670   -2.2590 hn        1 MOL      0.278915
     62 N7          4.7900    4.6440    0.7780 n         1 MOL     -0.578073
     63 C20         3.3510    4.8750    1.2420 c3        1 MOL     -0.033010
     64 C21         2.3200    5.6860    0.3580 c         1 MOL      0.540985
     65 O12         2.6800    6.2830   -0.6340 o         1 MOL     -0.544796
     66 H26         5.4120    5.3840    1.0390 hn        1 MOL      0.351390
     67 H27         3.5610    5.5000    2.1130 h1        1 MOL      0.092482
     68 H28         2.9390    3.9370    1.6300 h1        1 MOL      0.092482
     69 N8          0.9810    5.6850    0.6130 n         1 MOL     -0.441597
     70 C22         0.1750    4.9990    1.7210 c3        1 MOL     -0.286848
     71 C23        -1.1060    4.3000    1.1900 c         1 MOL      0.730327
     72 O13        -1.8330    4.9080    0.3970 o         1 MOL     -0.526060
     73 C24        -0.1260    5.8520    2.9650 c3        1 MOL      0.380312
     74 C25        -0.6760    4.9880    4.1310 c3        1 MOL     -0.382903
     75 O14         1.0880    6.3770    3.4580 oh        1 MOL     -0.619147
     76 H29         0.4500    6.3560    0.0860 hn        1 MOL      0.316755
     77 H30         0.8220    4.1520    1.9880 h1        1 MOL      0.182115
     78 H31        -0.8570    6.6000    2.6670 h1        1 MOL      0.020940
     79 H32         0.8560    7.2210    3.8480 ho        1 MOL      0.374074
     80 H33        -1.7160    4.7220    3.9330 hc        1 MOL      0.100346
     81 H34         0.0110    4.1510    4.2260 hc        1 MOL      0.100346
     82 H35        -0.7000    5.5260    5.0790 hc        1 MOL      0.100346
     83 N9         -1.3330    3.0200    1.3790 n         1 MOL     -0.559332
     84 C26        -2.5310    2.3090    1.0130 c3        1 MOL     -0.039169
     85 C27        -3.8190    2.7650    1.7450 c         1 MOL      0.633199
     86 O15        -3.7080    3.2450    2.8700 o         1 MOL     -0.618199
     87 C28        -2.3030    0.7800    1.2210 c3        1 MOL      0.106388
     88 C29        -2.0010    0.3580    2.6800 c3        1 MOL      0.164279
     89 C30        -1.1310    0.3300    0.2690 c3        1 MOL     -0.346736
     90 C31        -2.4900   -1.0860    2.8330 c3        1 MOL     -0.213669
     91 H36        -0.6820    2.5850    2.0190 hn        1 MOL      0.246298
     92 H37        -2.5980    2.4460   -0.0600 h1        1 MOL      0.173416
     93 H38        -3.1500    0.2320    0.8080 hc        1 MOL      0.082852
     94 H39        -2.6870    0.8570    3.3510 hc        1 MOL     -0.033009
     95 H40        -0.9660    0.5280    2.9860 hc        1 MOL     -0.033009
     96 H41        -0.2280    0.7230    0.7290 hc        1 MOL      0.090698
     97 H42        -1.0600   -0.7460    0.1360 hc        1 MOL      0.090698
     98 H43        -1.2980    0.8710   -0.6660 hc        1 MOL      0.090698
     99 H44        -3.4380   -1.2790    2.3390 hc        1 MOL      0.041403
    100 H45        -1.7980   -1.8310    2.4460 hc        1 MOL      0.041403
    101 H46        -2.5390   -1.3060    3.8990 hc        1 MOL      0.041403
    102 N10        -5.0370    2.7240    1.2150 n         1 MOL     -0.490787
    103 C32        -5.5460    2.1090   -0.0370 c3        1 MOL      0.122198
    104 C33        -6.9740    1.5250    0.2110 c         1 MOL      0.481172
    105 O16        -7.5190    1.5740    1.3160 o         1 MOL     -0.519370
    106 C34        -5.3010    3.1600   -1.1810 c3        1 MOL     -0.092566
    107 C35        -5.9140    4.5520   -0.8940 c         1 MOL      0.687264
    108 O17        -7.0650    4.6640   -0.5220 o         1 MOL     -0.650475
    109 O18        -5.1880    5.5200   -1.0500 o         1 MOL     -0.650475
    110 H47        -5.6610    3.2870    1.7760 hn        1 MOL      0.321654
    111 H48        -4.9350    1.2510   -0.2990 h1        1 MOL     -0.014957
    112 H49        -5.6850    2.7580   -2.1150 hc        1 MOL     -0.000803
    113 H50        -4.2230    3.3060   -1.3100 hc        1 MOL     -0.000803
    114 N11        -7.5500    0.8580   -0.7890 n         1 MOL     -0.576618
    115 C36        -8.9140    0.3840   -0.8070 c3        1 MOL      0.379858
    116 C37        -9.2260   -0.5870   -1.9330 c         1 MOL      0.194220
    117 O19        -8.8550   -0.4200   -3.1210 o         1 MOL     -0.487605
    118 C38        -9.7760    1.6040   -1.0930 c3        1 MOL     -0.258344
    119 C39       -11.2240    1.2710   -1.1630 ca        1 MOL      0.187608
    120 C40       -11.8620    1.0630   -2.4240 ca        1 MOL     -0.197023
    121 C41       -11.9630    1.0900   -0.0190 ca        1 MOL     -0.197023
    122 C42       -13.2350    0.8980   -2.5210 ca        1 MOL     -0.107412
    123 C43       -13.3600    0.7540   -0.0920 ca        1 MOL     -0.107412
    124 C44       -14.0090    0.7460   -1.3390 ca        1 MOL     -0.154616
    125 H51        -7.1270    0.7600   -1.6960 hn        1 MOL      0.339054
    126 H52        -9.1640   -0.0660    0.1580 h1        1 MOL     -0.020042
    127 H53        -9.5230    1.9900   -2.0780 hc        1 MOL      0.100571
    128 H54        -9.6630    2.4410   -0.4020 hc        1 MOL      0.100571
    129 H55       -11.3090    1.1150   -3.3600 ha        1 MOL      0.136587
    130 H56       -11.5190    1.2230    0.9630 ha        1 MOL      0.136587
    131 H57       -13.7390    0.7670   -3.4710 ha        1 MOL      0.096715
    132 H58       -14.0030    0.7700    0.7770 ha        1 MOL      0.096715
    133 H59       -15.0900    0.6660   -1.3740 ha        1 MOL      0.098442
    134 N12        -9.8480   -1.7570   -1.6040 n         1 MOL      0.134068
    135 C45       -10.3450   -2.1620   -0.2870 c3        1 MOL      0.098894
    136 C46        -9.1060   -2.4950    0.6550 c         1 MOL      0.563055
    137 O20        -9.1770   -2.4310    1.8760 o         1 MOL     -0.597183
    138 C47       -11.2030   -3.3860   -0.5610 c3        1 MOL     -0.237265
    139 C48       -10.7060   -3.9720   -1.8660 c3        1 MOL      0.164638
    140 C49       -10.0520   -2.8140   -2.5860 c3        1 MOL     -0.261433
    141 H60       -11.0150   -1.4120    0.1560 h1        1 MOL      0.001237
    142 H61       -11.0010   -4.0710    0.2530 hc        1 MOL      0.057870
    143 H62       -12.2240   -3.0550   -0.7070 hc        1 MOL      0.057870
    144 H63        -9.9000   -4.6610   -1.6290 hc        1 MOL     -0.010606
    145 H64       -11.4490   -4.5550   -2.3980 hc        1 MOL     -0.010606
    146 H65        -9.1230   -3.1910   -3.0160 h1        1 MOL      0.082917
    147 H66       -10.7310   -2.4710   -3.3660 h1        1 MOL      0.082917
    148 N13        -7.9450   -2.8850    0.1210 n         1 MOL     -0.347701
    149 C50        -6.7470   -3.3630    0.8600 c3        1 MOL      0.043975
    150 C51        -6.9470   -4.8200    1.3950 c         1 MOL      0.442687
    151 O21        -6.9760   -5.7760    0.6500 o         1 MOL     -0.571381
    152 C52        -5.5440   -3.3230   -0.0460 c3        1 MOL     -0.052668
    153 C53        -5.1610   -1.8780   -0.4560 c3        1 MOL      0.042030
    154 C54        -3.9750   -1.7540   -1.3480 c         1 MOL      0.659610
    155 O22        -4.0610   -0.8700   -2.2540 o         1 MOL     -0.679367
    156 O23        -3.0280   -2.5930   -1.1950 o         1 MOL     -0.679367
    157 H67        -7.8270   -2.8750   -0.8840 hn        1 MOL      0.244919
    158 H68        -6.6720   -2.6500    1.6810 h1        1 MOL      0.117068
    159 H69        -5.6470   -3.9680   -0.9230 hc        1 MOL      0.034116
    160 H70        -4.7160   -3.7480    0.5140 hc        1 MOL      0.034116
    161 H71        -4.9910   -1.2970    0.4530 hc        1 MOL     -0.053241
    162 H72        -5.9970   -1.4030   -0.9660 hc        1 MOL     -0.053241
    163 N14        -7.1260   -5.0910    2.6870 n         1 MOL     -0.282887
    164 C55        -7.2080   -4.1540    3.7850 c3        1 MOL     -0.156558
    165 H73        -6.4000   -3.4270    3.7020 h1        1 MOL      0.076744
    166 H74        -8.1660   -3.6360    3.7510 h1        1 MOL      0.076744
    167 H75        -7.1170   -4.6910    4.7290 h1        1 MOL      0.076744
    168 H76        -7.1880   -6.0890    2.8650 hn        1 MOL      0.248457
    169 Ca1         8.7740   -0.4760    0.0750 Ca        1 MOL      1.614400
    170 O24        10.0040    1.8860   -0.9290 oh        1 MOL     -0.758094
    171 H77        10.6150    2.4840   -0.5040 ho        1 MOL      0.352473
    172 H78        10.1350    2.0430   -1.8640 ho        1 MOL      0.352473
    173 O25         8.0200    1.2160    1.9760 oh        1 MOL     -0.758094
    174 H79         7.8720    2.1450    2.1710 ho        1 MOL      0.352473
    175 H80         8.6050    0.9100    2.6760 ho        1 MOL      0.352473
    176 O26        10.9670   -1.3050   -1.1340 oh        1 MOL     -0.758094
    177 H81        11.7030   -0.7410   -1.3740 ho        1 MOL      0.352473
    178 H82        11.3640   -2.1330   -0.8820 ho        1 MOL      0.352473
    179 O27        10.5780    0.2190    1.9310 oh        1 MOL     -0.758094
    180 H83        11.3700    0.4710    1.4700 ho        1 MOL      0.352473
    181 H84        10.8930   -0.2900    2.6890 ho        1 MOL      0.352473
@<TRIPOS>BOND
     1    1    2 1   
     2    1    4 1   
     3    1    5 1   
     4    1    6 1   
     5    2    3 2   
     6    2    7 1   
     7    7    8 1   
     8    7   15 1   
     9    8    9 1   
    10    8   11 1   
    11    8   16 1   
    12    9   10 2   
    13    9   19 1   
    14   11   12 1   
    15   11   17 1   
    16   11   18 1   
    17   12   13 1   
    18   12   14 1   
    19   19   20 1   
    20   19   24 1   
    21   20   21 1   
    22   20   23 1   
    23   20   25 1   
    24   21   22 2   
    25   21   29 1   
    26   23   26 1   
    27   23   27 1   
    28   23   28 1   
    29   29   30 1   
    30   29   37 1   
    31   30   31 1   
    32   30   33 1   
    33   30   38 1   
    34   31   32 2   
    35   31   41 1   
    36   33   34 1   
    37   33   39 1   
    38   33   40 1   
    39   34   35 1   
    40   34   36 1   
    41   41   42 1   
    42   41   45 1   
    43   42   43 1   
    44   42   46 1   
    45   42   47 1   
    46   43   44 2   
    47   43   48 1   
    48   48   49 1   
    49   48   56 1   
    50   49   50 1   
    51   49   52 1   
    52   49   57 1   
    53   50   51 2   
    54   50   62 1   
    55   52   53 1   
    56   52   58 1   
    57   52   59 1   
    58   53   54 1   
    59   53   55 2   
    60   54   60 1   
    61   54   61 1   
    62   62   63 1   
    63   62   66 1   
    64   63   64 1   
    65   63   67 1   
    66   63   68 1   
    67   64   65 2   
    68   64   69 1   
    69   69   70 1   
    70   69   76 1   
    71   70   71 1   
    72   70   73 1   
    73   70   77 1   
    74   71   72 2   
    75   71   83 1   
    76   73   74 1   
    77   73   75 1   
    78   73   78 1   
    79   74   80 1   
    80   74   81 1   
    81   74   82 1   
    82   75   79 1   
    83   83   84 1   
    84   83   91 1   
    85   84   85 1   
    86   84   87 1   
    87   84   92 1   
    88   85   86 2   
    89   85  102 1   
    90   87   88 1   
    91   87   89 1   
    92   87   93 1   
    93   88   90 1   
    94   88   94 1   
    95   88   95 1   
    96   89   96 1   
    97   89   97 1   
    98   89   98 1   
    99   90   99 1   
   100   90  100 1   
   101   90  101 1   
   102  102  103 1   
   103  102  110 1   
   104  103  104 1   
   105  103  106 1   
   106  103  111 1   
   107  104  105 2   
   108  104  114 1   
   109  106  107 1   
   110  106  112 1   
   111  106  113 1   
   112  107  108 1   
   113  107  109 1   
   114  114  115 1   
   115  114  125 1   
   116  115  116 1   
   117  115  118 1   
   118  115  126 1   
   119  116  117 2   
   120  116  134 1   
   121  118  119 1   
   122  118  127 1   
   123  118  128 1   
   124  119  120 ar  
   125  119  121 ar  
   126  120  122 ar  
   127  120  129 1   
   128  121  123 ar  
   129  121  130 1   
   130  122  124 ar  
   131  122  131 1   
   132  123  124 ar  
   133  123  132 1   
   134  124  133 1   
   135  134  135 1   
   136  134  140 1   
   137  135  136 1   
   138  135  138 1   
   139  135  141 1   
   140  136  137 2   
   141  136  148 1   
   142  138  139 1   
   143  138  142 1   
   144  138  143 1   
   145  139  140 1   
   146  139  144 1   
   147  139  145 1   
   148  140  146 1   
   149  140  147 1   
   150  148  149 1   
   151  148  157 1   
   152  149  150 1   
   153  149  152 1   
   154  149  158 1   
   155  150  151 2   
   156  150  163 1   
   157  152  153 1   
   158  152  159 1   
   159  152  160 1   
   160  153  154 1   
   161  153  161 1   
   162  153  162 1   
   163  154  155 1   
   164  154  156 1   
   165  163  164 1   
   166  163  168 1   
   167  164  165 1   
   168  164  166 1   
   169  164  167 1   
   170  170  171 1   
   171  170  172 1   
   172  173  174 1   
   173  173  175 1   
   174  176  177 1   
   175  176  178 1   
   176  179  180 1   
   177  179  181 1   
@<TRIPOS>SUBSTRUCTURE
     1 MOL         1 TEMP              0 ****  ****    0 ROOT
