@<TRIPOS>MOLECULE
MOL
  192   187     1     0     0
SMALL
resp


@<TRIPOS>ATOM
      1 C1          1.0770    7.6310   -2.5230 c3        1 MOL     -0.350834
      2 C2          1.0030    6.1620   -2.0100 c         1 MOL      0.891469
      3 O1          0.3750    5.3650   -2.6450 o         1 MOL     -0.673783
      4 H1          0.6340    8.2970   -1.7830 hc        1 MOL      0.078856
      5 H2          2.1190    7.9080   -2.6840 hc        1 MOL      0.078856
      6 H3          0.5300    7.7160   -3.4620 hc        1 MOL      0.078856
      7 N1          1.7050    5.8170   -0.9350 n         1 MOL     -0.709722
      8 C3          1.8140    4.4490   -0.3440 c3        1 MOL      0.286372
      9 C4          0.5670    3.8610    0.2360 c         1 MOL      0.464671
     10 O2          0.5460    2.9340    1.0350 o         1 MOL     -0.545592
     11 C5          3.1280    4.2610    0.4990 c3        1 MOL     -0.253500
     12 C6          3.4830    5.3140    1.5410 c         1 MOL      0.682606
     13 O3          3.1990    6.5650    1.4000 o         1 MOL     -0.707794
     14 O4          4.1000    4.9620    2.5760 o         1 MOL     -0.707794
     15 H4          2.4140    6.4640   -0.6120 hn        1 MOL      0.290282
     16 H5          1.9990    3.8030   -1.2010 h1        1 MOL      0.044266
     17 H6          3.9120    4.2730   -0.2610 hc        1 MOL      0.051188
     18 H7          3.1600    3.2260    0.8450 hc        1 MOL      0.051188
     19 N2         -0.5700    4.3620   -0.0580 n         1 MOL     -0.412218
     20 C7         -1.8830    3.9000    0.3800 c3        1 MOL      0.265536
     21 C8         -2.5800    3.1870   -0.7310 c         1 MOL      0.680298
     22 O5         -2.6100    3.5980   -1.8990 o         1 MOL     -0.597302
     23 C9         -2.6970    5.2170    0.6600 c3        1 MOL     -0.123278
     24 C10        -2.1420    6.0580    1.8950 c3        1 MOL      0.188782
     25 C11        -2.9550    7.2480    2.3130 c3        1 MOL     -0.117710
     26 C12        -2.2650    8.2810    3.2700 c3        1 MOL      0.018897
     27 N3         -2.2430    7.8840    4.7270 n4        1 MOL     -0.414715
     28 H8         -0.4940    5.1050   -0.7430 hn        1 MOL      0.187097
     29 H9         -1.9400    3.2440    1.2390 h1        1 MOL      0.002090
     30 H10        -3.7520    5.0240    0.8460 hc        1 MOL      0.029172
     31 H11        -2.7080    5.8060   -0.2610 hc        1 MOL      0.029172
     32 H12        -1.1590    6.5220    1.8270 hc        1 MOL     -0.014350
     33 H13        -2.0960    5.4410    2.7910 hc        1 MOL     -0.014350
     34 H14        -3.8280    6.8790    2.8530 hc        1 MOL      0.039822
     35 H15        -3.2050    7.8600    1.4430 hc        1 MOL      0.039822
     36 H16        -2.8160    9.2290    3.2120 hx        1 MOL      0.104433
     37 H17        -1.3080    8.5120    2.7940 hx        1 MOL      0.104433
     38 H18        -1.9830    8.6320    5.3600 hn        1 MOL      0.340800
     39 H19        -3.0840    7.4270    5.0410 hn        1 MOL      0.340800
     40 H20        -1.5880    7.1230    4.8500 hn        1 MOL      0.340800
     41 N4         -3.2390    2.0540   -0.4270 n         1 MOL     -0.763809
     42 C13        -3.1100    1.0910    0.7170 c3        1 MOL      0.402942
     43 C14        -3.4730    1.6770    2.1340 c         1 MOL      0.345474
     44 O6         -2.6100    2.0550    2.9520 o         1 MOL     -0.540314
     45 C15        -1.6990    0.4050    0.5640 c3        1 MOL     -0.105679
     46 C16        -1.3450   -0.1810   -0.8730 c         1 MOL      0.695030
     47 O7         -2.2460   -0.2910   -1.7380 o         1 MOL     -0.716503
     48 O8         -0.2230   -0.6050   -1.1480 o         1 MOL     -0.716503
     49 H21        -3.7280    1.7130   -1.2400 hn        1 MOL      0.368903
     50 H22        -3.8680    0.3380    0.5050 h1        1 MOL     -0.062202
     51 H23        -1.7310   -0.4340    1.2540 hc        1 MOL      0.004815
     52 H24        -0.8840    1.0720    0.8480 hc        1 MOL      0.004815
     53 N5         -4.7470    1.8900    2.3810 n         1 MOL     -0.284722
     54 C17        -5.9560    1.4620    1.6670 c3        1 MOL      0.018005
     55 C18        -7.3160    1.7990    2.2740 c         1 MOL      0.510447
     56 O9         -7.4080    2.0230    3.4680 o         1 MOL     -0.555470
     57 H25        -5.0200    2.3740    3.2300 hn        1 MOL      0.232420
     58 H26        -5.8190    0.3790    1.6250 h1        1 MOL      0.075565
     59 H27        -5.8570    1.8320    0.6420 h1        1 MOL      0.075565
     60 N6         -8.4290    1.5770    1.5800 n         1 MOL     -0.451957
     61 C19        -8.4500    1.1120    0.1770 c3        1 MOL      0.070468
     62 C20        -8.2990   -0.4020    0.1240 c         1 MOL      0.525122
     63 O10        -8.8590   -1.1790    0.8900 o         1 MOL     -0.503383
     64 C21        -9.6830    1.6480   -0.5300 c3        1 MOL     -0.345492
     65 C22        -9.6980    1.2650   -2.0250 c         1 MOL      0.772297
     66 O11        -8.8630    1.8190   -2.7750 o         1 MOL     -0.696509
     67 O12       -10.5460    0.5080   -2.5100 o         1 MOL     -0.696509
     68 H28        -9.3050    1.8230    2.0230 hn        1 MOL      0.314769
     69 H29        -7.5500    1.5530   -0.2570 h1        1 MOL      0.000975
     70 H30        -9.7040    2.7380   -0.5420 hc        1 MOL      0.094332
     71 H31       -10.5240    1.2390    0.0200 hc        1 MOL      0.094332
     72 N7         -7.5730   -0.9140   -0.8990 n         1 MOL     -0.355256
     73 C23        -7.2090   -2.2590   -1.1980 c3        1 MOL      0.044344
     74 C24        -6.1110   -2.7860   -0.2510 c         1 MOL      0.581642
     75 O13        -5.7110   -2.1120    0.6720 o         1 MOL     -0.513433
     76 H32        -7.3120   -0.2760   -1.6450 hn        1 MOL      0.236053
     77 H33        -6.8300   -2.3950   -2.2100 h1        1 MOL      0.040102
     78 H34        -8.0210   -2.9770   -1.0550 h1        1 MOL      0.040102
     79 N8         -5.6450   -4.0210   -0.5240 n         1 MOL     -0.419893
     80 C25        -4.6830   -4.7350    0.3140 c3        1 MOL     -0.163464
     81 C26        -3.3370   -4.0270    0.4760 c         1 MOL      0.565172
     82 O14        -2.8130   -3.4950   -0.4600 o         1 MOL     -0.495619
     83 C27        -4.4080   -6.1860   -0.1760 c3        1 MOL      0.194496
     84 C28        -3.8800   -6.2560   -1.6300 c3        1 MOL     -0.088091
     85 O15        -5.7140   -6.8480   -0.2280 oh        1 MOL     -0.597579
     86 H35        -6.0830   -4.5030   -1.2870 hn        1 MOL      0.302904
     87 H36        -5.0810   -4.7410    1.3340 h1        1 MOL      0.139389
     88 H37        -3.6290   -6.6360    0.4410 h1        1 MOL      0.062774
     89 H38        -5.6360   -7.8040   -0.2380 ho        1 MOL      0.393121
     90 H39        -4.5480   -5.8040   -2.3610 hc        1 MOL      0.024699
     91 H40        -2.8710   -5.8500   -1.6470 hc        1 MOL      0.024699
     92 H41        -3.7750   -7.2960   -1.9330 hc        1 MOL      0.024699
     93 N9         -2.7060   -4.1110    1.6040 n         1 MOL     -0.435122
     94 C29        -1.2710   -3.7990    1.8440 c3        1 MOL      0.059777
     95 C30        -0.3920   -4.8570    1.2330 c         1 MOL      0.522685
     96 O16        -0.7370   -6.0360    1.1370 o         1 MOL     -0.520951
     97 C31        -1.0430   -3.6660    3.4180 c3        1 MOL     -0.030489
     98 C32        -1.8500   -2.4480    3.9260 c3        1 MOL     -0.027008
     99 C33         0.4980   -3.6790    3.8210 c3        1 MOL     -0.191516
    100 C34        -1.5790   -2.0180    5.4010 c3        1 MOL     -0.126098
    101 H42        -3.1050   -4.6910    2.3300 hn        1 MOL      0.237114
    102 H43        -1.0170   -2.8360    1.3960 h1        1 MOL      0.080272
    103 H44        -1.5190   -4.5360    3.8640 hc        1 MOL      0.039360
    104 H45        -2.9090   -2.5590    3.7240 hc        1 MOL      0.056647
    105 H46        -1.6270   -1.5660    3.3250 hc        1 MOL      0.056647
    106 H47         1.0190   -2.9990    3.1510 hc        1 MOL      0.045382
    107 H48         0.6000   -3.4470    4.8860 hc        1 MOL      0.045382
    108 H49         0.9040   -4.6830    3.6350 hc        1 MOL      0.045382
    109 H50        -1.8220   -2.7850    6.1340 hc        1 MOL      0.043387
    110 H51        -0.5790   -1.6360    5.6390 hc        1 MOL      0.043387
    111 H52        -2.3540   -1.2840    5.5950 hc        1 MOL      0.043387
    112 N10         0.7840   -4.4380    0.6910 n         1 MOL     -0.349734
    113 C35         1.7900   -5.2350    0.0460 c3        1 MOL      0.015999
    114 C36         3.2930   -4.9810    0.4030 c         1 MOL      0.391798
    115 O17         4.0950   -5.8040   -0.0550 o         1 MOL     -0.473725
    116 C37         1.5550   -5.0040   -1.4160 c3        1 MOL      0.301732
    117 C38         1.7350   -3.4800   -1.9050 c3        1 MOL     -0.117935
    118 O18         0.2580   -5.4060   -1.8670 oh        1 MOL     -0.548850
    119 H53         0.9010   -3.4400    0.6360 hn        1 MOL      0.303269
    120 H54         1.7660   -6.3180    0.1720 h1        1 MOL      0.116038
    121 H55         2.2730   -5.6270   -1.9580 h1        1 MOL      0.008912
    122 H56         0.2310   -5.0230   -2.7460 ho        1 MOL      0.305377
    123 H57         1.7030   -3.3490   -2.9880 hc        1 MOL      0.007033
    124 H58         0.9050   -2.8950   -1.5030 hc        1 MOL      0.007033
    125 H59         2.6440   -3.0450   -1.4720 hc        1 MOL      0.007033
    126 N11         3.5840   -3.9010    1.1340 n         1 MOL     -0.531879
    127 C39         4.9120   -3.5580    1.6200 c3        1 MOL      0.156129
    128 C40         5.9260   -3.2700    0.4880 c         1 MOL      0.363202
    129 O19         5.9760   -3.9360   -0.5290 o         1 MOL     -0.428618
    130 C41         5.3820   -4.5740    2.7040 c3        1 MOL      0.564613
    131 C42         4.3970   -4.6790    3.8530 c3        1 MOL     -0.315126
    132 O20         6.7050   -4.3010    3.0250 oh        1 MOL     -0.706356
    133 H60         2.8560   -3.1950    1.1680 hn        1 MOL      0.296951
    134 H61         4.7480   -2.5900    2.0790 h1        1 MOL      0.034871
    135 H62         5.4800   -5.5690    2.2710 h1        1 MOL     -0.025261
    136 H63         7.0780   -5.1860    3.0220 ho        1 MOL      0.401875
    137 H64         3.7870   -5.5360    3.5530 hc        1 MOL      0.065956
    138 H65         4.9970   -4.9660    4.7140 hc        1 MOL      0.065956
    139 H66         3.8290   -3.7660    4.0490 hc        1 MOL      0.065956
    140 N12         6.8200   -2.3340    0.7850 n         1 MOL     -0.326983
    141 C43         7.9220   -1.7790   -0.1470 c3        1 MOL     -0.018281
    142 C44         7.5100   -0.6630   -1.1800 c         1 MOL      0.580550
    143 O21         8.2390   -0.4280   -2.1560 o         1 MOL     -0.556750
    144 C45         9.0900   -1.2250    0.7230 c3        1 MOL     -0.180278
    145 C46         8.7750    0.0470    1.6590 c3        1 MOL      0.083535
    146 C47        10.1360    0.4410    2.2580 c3        1 MOL     -0.018488
    147 C48        10.0270    1.7790    3.1490 c3        1 MOL     -0.129969
    148 N13         9.8710    2.9860    2.3090 n4        1 MOL     -0.325303
    149 H67         6.6760   -1.7980    1.6280 hn        1 MOL      0.234829
    150 H68         8.2550   -2.5690   -0.8220 h1        1 MOL      0.131746
    151 H69         9.8730   -0.9640    0.0220 hc        1 MOL      0.072410
    152 H70         9.4480   -2.0900    1.2870 hc        1 MOL      0.072410
    153 H71         8.0460   -0.1490    2.4480 hc        1 MOL      0.003344
    154 H72         8.3960    0.8850    1.0840 hc        1 MOL      0.003344
    155 H73        10.8880    0.6190    1.4880 hc        1 MOL      0.042596
    156 H74        10.5090   -0.4180    2.8200 hc        1 MOL      0.042596
    157 H75        10.9600    1.7500    3.7180 hx        1 MOL      0.135110
    158 H76         9.1670    1.6330    3.8060 hx        1 MOL      0.135110
    159 H77         9.5960    3.7730    2.8970 hn        1 MOL      0.308191
    160 H78        10.6820    3.1710    1.7380 hn        1 MOL      0.308191
    161 H79         9.0810    2.9790    1.6880 hn        1 MOL      0.308191
    162 N14         6.3590    0.0290   -1.0680 n         1 MOL     -0.418629
    163 C49         5.6870    0.9070   -2.1680 c3        1 MOL     -0.097164
    164 C50         6.3570    2.2800   -2.3500 c         1 MOL      0.426081
    165 O22         5.9650    3.3140   -1.8460 o         1 MOL     -0.480981
    166 C51         4.2020    1.1780   -1.8290 c3        1 MOL      0.318271
    167 C52         3.2180   -0.0630   -1.9850 c3        1 MOL      0.037230
    168 C53         2.8610   -0.3960   -3.4450 c         1 MOL      0.593229
    169 O23         3.7930   -0.8310   -4.1750 o         1 MOL     -0.720548
    170 O24         1.7050   -0.2470   -3.8930 o         1 MOL     -0.720548
    171 H80         5.6780   -0.2470   -0.3710 hn        1 MOL      0.201192
    172 H81         5.8790    0.4730   -3.1470 h1        1 MOL      0.150319
    173 H82         3.7900    1.9760   -2.4520 hc        1 MOL     -0.049654
    174 H83         4.1390    1.5380   -0.8010 hc        1 MOL     -0.049654
    175 H84         2.2950    0.2690   -1.5110 hc        1 MOL     -0.040798
    176 H85         3.6150   -0.9020   -1.4240 hc        1 MOL     -0.040798
    177 N15         7.3560    2.2700   -3.2390 n         1 MOL     -0.255997
    178 C54         8.2590    3.2960   -3.6900 c3        1 MOL     -0.316377
    179 H86         8.8990    2.8950   -4.4760 h1        1 MOL      0.125771
    180 H87         7.6870    4.1370   -4.0820 h1        1 MOL      0.125771
    181 H88         8.8750    3.6310   -2.8550 h1        1 MOL      0.125771
    182 H89         7.6400    1.3290   -3.5010 hn        1 MOL      0.260514
    183 Ca1        -0.7400   -0.6170   -3.8890 Ca        1 MOL      1.758524
    184 O25        -0.9930    1.9440   -3.3170 oh        1 MOL     -0.937113
    185 H90        -0.6780    2.4850   -4.0390 ho        1 MOL      0.454688
    186 H91        -1.5960    2.5160   -2.8380 ho        1 MOL      0.454688
    187 O26        -1.4810   -2.9360   -2.6930 oh        1 MOL     -0.937113
    188 H92        -1.5290   -3.0170   -1.7410 ho        1 MOL      0.454688
    189 H93        -0.9920   -3.7030   -2.9770 ho        1 MOL      0.454688
    190 O27        -3.1290    0.3270   -4.6460 oh        1 MOL     -0.937113
    191 H94        -3.7790    0.1020   -3.9720 ho        1 MOL      0.454688
    192 H95        -3.6620    0.5180   -5.4250 ho        1 MOL      0.454688
@<TRIPOS>BOND
     1    1    2 1   
     2    1    4 1   
     3    1    5 1   
     4    1    6 1   
     5    2    3 2   
     6    2    7 1   
     7    7    8 1   
     8    7   15 1   
     9    8    9 1   
    10    8   11 1   
    11    8   16 1   
    12    9   10 2   
    13    9   19 1   
    14   11   12 1   
    15   11   17 1   
    16   11   18 1   
    17   12   13 1   
    18   12   14 1   
    19   19   20 1   
    20   19   28 1   
    21   20   21 1   
    22   20   23 1   
    23   20   29 1   
    24   21   22 2   
    25   21   41 1   
    26   23   24 1   
    27   23   30 1   
    28   23   31 1   
    29   24   25 1   
    30   24   32 1   
    31   24   33 1   
    32   25   26 1   
    33   25   34 1   
    34   25   35 1   
    35   26   27 1   
    36   26   36 1   
    37   26   37 1   
    38   27   38 1   
    39   27   39 1   
    40   27   40 1   
    41   41   42 1   
    42   41   49 1   
    43   42   43 1   
    44   42   45 1   
    45   42   50 1   
    46   43   44 2   
    47   43   53 1   
    48   45   46 1   
    49   45   51 1   
    50   45   52 1   
    51   46   47 1   
    52   46   48 1   
    53   53   54 1   
    54   53   57 1   
    55   54   55 1   
    56   54   58 1   
    57   54   59 1   
    58   55   56 2   
    59   55   60 1   
    60   60   61 1   
    61   60   68 1   
    62   61   62 1   
    63   61   64 1   
    64   61   69 1   
    65   62   63 2   
    66   62   72 1   
    67   64   65 1   
    68   64   70 1   
    69   64   71 1   
    70   65   66 1   
    71   65   67 1   
    72   72   73 1   
    73   72   76 1   
    74   73   74 1   
    75   73   77 1   
    76   73   78 1   
    77   74   75 2   
    78   74   79 1   
    79   79   80 1   
    80   79   86 1   
    81   80   81 1   
    82   80   83 1   
    83   80   87 1   
    84   81   82 2   
    85   81   93 1   
    86   83   84 1   
    87   83   85 1   
    88   83   88 1   
    89   84   90 1   
    90   84   91 1   
    91   84   92 1   
    92   85   89 1   
    93   93   94 1   
    94   93  101 1   
    95   94   95 1   
    96   94   97 1   
    97   94  102 1   
    98   95   96 2   
    99   95  112 1   
   100   97   98 1   
   101   97   99 1   
   102   97  103 1   
   103   98  100 1   
   104   98  104 1   
   105   98  105 1   
   106   99  106 1   
   107   99  107 1   
   108   99  108 1   
   109  100  109 1   
   110  100  110 1   
   111  100  111 1   
   112  112  113 1   
   113  112  119 1   
   114  113  114 1   
   115  113  116 1   
   116  113  120 1   
   117  114  115 2   
   118  114  126 1   
   119  116  117 1   
   120  116  118 1   
   121  116  121 1   
   122  117  123 1   
   123  117  124 1   
   124  117  125 1   
   125  118  122 1   
   126  126  127 1   
   127  126  133 1   
   128  127  128 1   
   129  127  130 1   
   130  127  134 1   
   131  128  129 2   
   132  128  140 1   
   133  130  131 1   
   134  130  132 1   
   135  130  135 1   
   136  131  137 1   
   137  131  138 1   
   138  131  139 1   
   139  132  136 1   
   140  140  141 1   
   141  140  149 1   
   142  141  142 1   
   143  141  144 1   
   144  141  150 1   
   145  142  143 2   
   146  142  162 1   
   147  144  145 1   
   148  144  151 1   
   149  144  152 1   
   150  145  146 1   
   151  145  153 1   
   152  145  154 1   
   153  146  147 1   
   154  146  155 1   
   155  146  156 1   
   156  147  148 1   
   157  147  157 1   
   158  147  158 1   
   159  148  159 1   
   160  148  160 1   
   161  148  161 1   
   162  162  163 1   
   163  162  171 1   
   164  163  164 1   
   165  163  166 1   
   166  163  172 1   
   167  164  165 2   
   168  164  177 1   
   169  166  167 1   
   170  166  173 1   
   171  166  174 1   
   172  167  168 1   
   173  167  175 1   
   174  167  176 1   
   175  168  169 1   
   176  168  170 1   
   177  177  178 1   
   178  177  182 1   
   179  178  179 1   
   180  178  180 1   
   181  178  181 1   
   182  184  185 1   
   183  184  186 1   
   184  187  188 1   
   185  187  189 1   
   186  190  191 1   
   187  190  192 1   
@<TRIPOS>SUBSTRUCTURE
     1 MOL         1 TEMP              0 ****  ****    0 ROOT
