@<TRIPOS>MOLECULE
MOL
  179   176     1     0     0
SMALL
resp


@<TRIPOS>ATOM
      1 C1          1.6210   -3.8750    6.6040 c3        1 MOL     -0.385698
      2 C2          1.7840   -3.9400    5.0050 c         1 MOL      0.643475
      3 O1          1.1510   -4.7240    4.2650 o         1 MOL     -0.538792
      4 H1          0.8570   -4.5850    6.9200 hc        1 MOL      0.111455
      5 H2          2.5700   -4.1290    7.0770 hc        1 MOL      0.111455
      6 H3          1.3250   -2.8690    6.8990 hc        1 MOL      0.111455
      7 N1          2.8250   -3.2430    4.4370 n         1 MOL     -0.480632
      8 C3          2.9380   -2.9190    2.9690 c3        1 MOL     -0.073815
      9 C4          3.3120   -4.1640    2.2040 c         1 MOL      0.586157
     10 O2          4.0970   -4.9840    2.5800 o         1 MOL     -0.535033
     11 C5          3.8840   -1.6350    2.7760 c3        1 MOL      0.099075
     12 C6          3.6300   -0.9810    1.4650 c         1 MOL      0.220023
     13 O3          4.0900    0.1600    1.3090 o         1 MOL     -0.570140
     14 O4          3.1410   -1.5110    0.4280 o         1 MOL     -0.570140
     15 H4          3.4850   -2.7340    5.0080 hn        1 MOL      0.250776
     16 H5          1.9120   -2.5840    2.8600 h1        1 MOL      0.048394
     17 H6          4.9060   -1.9710    2.9580 hc        1 MOL      0.044942
     18 H7          3.6030   -0.8880    3.5200 hc        1 MOL      0.044942
     19 N2          2.6260   -4.3500    1.0390 n         1 MOL     -0.168127
     20 C7          2.8610   -5.4080    0.0350 c3        1 MOL      0.058663
     21 C8          3.8840   -5.0760   -1.0530 c         1 MOL      0.429126
     22 O5          4.5400   -5.9650   -1.5850 o         1 MOL     -0.544940
     23 C9          1.5700   -6.0810   -0.3540 c3        1 MOL     -0.192365
     24 C10         0.8350   -5.3010   -1.4630 c3        1 MOL      0.034926
     25 C11        -0.4290   -6.0130   -2.0330 c3        1 MOL     -0.056651
     26 C12        -1.0470   -5.2540   -3.1670 c3        1 MOL      0.009174
     27 N3         -0.2250   -5.5280   -4.4020 n4        1 MOL     -0.284411
     28 H8          1.8320   -3.7370    0.8840 hn        1 MOL      0.021803
     29 H9          3.3580   -6.2110    0.5790 h1        1 MOL      0.102178
     30 H10         0.9220   -6.1420    0.5160 hc        1 MOL      0.077610
     31 H11         1.8230   -7.0480   -0.7930 hc        1 MOL      0.077610
     32 H12         1.4540   -5.2180   -2.3570 hc        1 MOL      0.016028
     33 H13         0.6220   -4.2440   -1.2560 hc        1 MOL      0.016028
     34 H14        -1.2340   -5.9510   -1.3060 hc        1 MOL      0.056161
     35 H15        -0.2310   -7.0420   -2.3200 hc        1 MOL      0.056161
     36 H16        -0.9850   -4.1850   -2.9650 hx        1 MOL      0.070326
     37 H17        -2.0340   -5.7110   -3.2520 hx        1 MOL      0.070326
     38 H18        -0.5930   -5.0440   -5.2080 hn        1 MOL      0.267445
     39 H19         0.6570   -5.1360   -4.1130 hn        1 MOL      0.267445
     40 H20        -0.0960   -6.5190   -4.5430 hn        1 MOL      0.267445
     41 N4          4.1340   -3.8400   -1.4080 n         1 MOL     -0.436151
     42 C13         5.3330   -3.4860   -2.1540 c3        1 MOL      0.269481
     43 C14         6.4050   -2.7810   -1.3580 c         1 MOL      0.374881
     44 O6          7.5640   -2.9040   -1.6940 o         1 MOL     -0.526715
     45 C15         5.0050   -2.5070   -3.3060 c3        1 MOL     -0.289430
     46 C16         3.9900   -1.4830   -2.8430 c         1 MOL      0.871090
     47 O7          2.7570   -1.7510   -2.9900 o         1 MOL     -0.826908
     48 O8          4.3770   -0.4160   -2.3060 o         1 MOL     -0.826908
     49 H21         3.6580   -3.1140   -0.9020 hn        1 MOL      0.299921
     50 H22         5.8040   -4.3440   -2.6370 h1        1 MOL      0.066241
     51 H23         4.5310   -3.1090   -4.0750 hc        1 MOL      0.060587
     52 H24         5.8470   -1.9540   -3.7270 hc        1 MOL      0.060587
     53 N5          5.9810   -1.9570   -0.3660 n         1 MOL     -0.123470
     54 C17         6.8970   -1.2830    0.6540 c3        1 MOL     -0.260230
     55 C18         7.0200    0.1970    0.3090 c         1 MOL      0.633326
     56 O9          7.6230    0.9030    1.1200 o         1 MOL     -0.585784
     57 H25         5.0110   -1.7930   -0.1580 hn        1 MOL      0.042825
     58 H26         7.9420   -1.6050    0.6780 h1        1 MOL      0.152783
     59 H27         6.4790   -1.3520    1.6540 h1        1 MOL      0.152783
     60 N6          6.5680    0.6790   -0.8370 n         1 MOL     -0.442285
     61 C19         6.8020    2.0140   -1.4190 c3        1 MOL     -0.023629
     62 C20         5.5710    2.9000   -1.2690 c         1 MOL      0.715504
     63 O10         4.4110    2.4000   -1.3400 o         1 MOL     -0.673538
     64 C21         7.2570    1.8310   -2.8820 c3        1 MOL     -0.206324
     65 C22         8.4600    0.9200   -3.1030 c         1 MOL      0.607013
     66 N7          8.5680    0.2540   -4.2040 n         1 MOL     -0.679488
     67 O11         9.3560    0.8650   -2.2650 o         1 MOL     -0.506423
     68 H28         6.1340   -0.0130   -1.4180 hn        1 MOL      0.392333
     69 H29         7.6840    2.5120   -1.0270 h1        1 MOL      0.078082
     70 H30         7.3820    2.7680   -3.4320 hc        1 MOL      0.044243
     71 H31         6.4430    1.3030   -3.3620 hc        1 MOL      0.044243
     72 H32         7.8640    0.4060   -4.9160 hn        1 MOL      0.336991
     73 H33         9.5000   -0.0380   -4.4640 hn        1 MOL      0.336991
     74 N8          5.7910    4.2010   -1.1080 n         1 MOL     -0.466353
     75 C23         4.7600    5.2280   -1.0460 c3        1 MOL     -0.010613
     76 C24         3.8170    5.1630    0.1530 c         1 MOL      0.578744
     77 O12         4.3780    5.2430    1.2610 o         1 MOL     -0.505068
     78 H34         6.7600    4.4880   -1.0290 hn        1 MOL      0.334785
     79 H35         4.1950    5.2850   -1.9760 h1        1 MOL      0.064026
     80 H36         5.2810    6.1870   -1.0380 h1        1 MOL      0.064026
     81 N9          2.4920    5.0960   -0.0520 n         1 MOL     -0.689212
     82 C25         1.4560    4.8350    1.0490 c3        1 MOL      0.505661
     83 C26         1.4590    3.3810    1.5520 c         1 MOL      0.474150
     84 O13         2.3380    2.5980    1.1630 o         1 MOL     -0.489294
     85 C27         0.0300    5.1570    0.5340 c3        1 MOL     -0.494523
     86 C28        -0.1620    6.5310    0.0290 ca        1 MOL      0.106844
     87 C29        -0.1330    6.7650   -1.3010 ca        1 MOL     -0.143202
     88 C30        -0.4600    7.5380    0.9750 ca        1 MOL     -0.143202
     89 C31        -0.3290    8.1050   -1.8190 ca        1 MOL     -0.272210
     90 C32        -0.5870    8.9060    0.4810 ca        1 MOL     -0.272210
     91 C33        -0.4320    9.1600   -0.8880 ca        1 MOL      0.326579
     92 O14        -0.5660   10.4060   -1.3590 oh        1 MOL     -0.418364
     93 H37         2.1640    5.0940   -1.0050 hn        1 MOL      0.305006
     94 H38         1.7420    5.4150    1.9290 h1        1 MOL      0.032760
     95 H39        -0.7270    5.1850    1.3140 hc        1 MOL      0.144147
     96 H40        -0.3530    4.3990   -0.1520 hc        1 MOL      0.144147
     97 H41         0.1230    5.9600   -1.9810 ha        1 MOL      0.130112
     98 H42        -0.5350    7.3190    2.0330 ha        1 MOL      0.130112
     99 H43        -0.1390    8.3500   -2.8540 ha        1 MOL      0.167612
    100 H44        -0.8290    9.7740    1.0790 ha        1 MOL      0.167612
    101 H45        -0.4730   10.3740   -2.3180 ho        1 MOL      0.328978
    102 N10         0.4500    3.0130    2.3600 n         1 MOL     -0.567900
    103 C34         0.2330    1.7280    3.0600 c3        1 MOL      0.125326
    104 C35        -0.1420    0.5830    2.0900 c         1 MOL      0.167259
    105 O15         0.6210    0.3130    1.1920 o         1 MOL     -0.148218
    106 C36         1.3280    1.3860    4.0580 c3        1 MOL     -0.013587
    107 C37         0.9810    0.0770    4.8490 c3        1 MOL     -0.127707
    108 C38         1.6250    2.5740    5.0020 c3        1 MOL     -0.228512
    109 C39        -0.3140    0.1370    5.6740 c3        1 MOL     -0.427841
    110 H46        -0.1480    3.7460    2.7210 hn        1 MOL      0.275181
    111 H47        -0.6980    1.8850    3.6110 h1        1 MOL      0.082020
    112 H48         2.2530    1.1680    3.5250 hc        1 MOL      0.084400
    113 H49         1.8170   -0.0840    5.5240 hc        1 MOL      0.105117
    114 H50         0.9360   -0.7930    4.2000 hc        1 MOL      0.105117
    115 H51         0.6860    2.8610    5.4660 hc        1 MOL      0.081283
    116 H52         2.1970    2.3290    5.9050 hc        1 MOL      0.081283
    117 H53         1.9370    3.5210    4.5560 hc        1 MOL      0.081283
    118 H54        -0.7470   -0.8660    5.7450 hc        1 MOL      0.117892
    119 H55        -0.0880    0.4760    6.6820 hc        1 MOL      0.117892
    120 H56        -1.1460    0.5840    5.1240 hc        1 MOL      0.117892
    121 N11        -1.3440   -0.0290    2.1640 n         1 MOL     -0.192681
    122 C40        -1.8860   -0.9880    1.1470 c3        1 MOL     -0.171275
    123 C41        -3.4400   -1.0520    1.0700 c         1 MOL      0.622888
    124 O16        -4.1350   -1.6760    1.8840 o         1 MOL     -0.501177
    125 C42        -1.3760   -2.4780    1.3170 c3        1 MOL      0.010286
    126 O17         0.0180   -2.6590    1.1110 oh        1 MOL     -0.295997
    127 H57        -2.0040    0.4840    2.7330 hn        1 MOL      0.246986
    128 H58        -1.6150   -0.5750    0.1660 h1        1 MOL      0.052640
    129 H59        -1.9690   -3.0550    0.6080 h1        1 MOL      0.084594
    130 H60        -1.7090   -2.7770    2.3160 h1        1 MOL      0.084594
    131 H61         0.3300   -1.9420    0.5580 ho        1 MOL      0.250883
    132 N12        -4.0530   -0.4920   -0.0170 n         1 MOL     -0.631720
    133 C43        -5.4440   -0.5790   -0.4960 c3        1 MOL      0.136420
    134 C44        -5.4480   -0.6600   -2.0450 c         1 MOL      0.734030
    135 O18        -4.4010   -0.5670   -2.6650 o         1 MOL     -0.615592
    136 C45        -6.2770    0.5970   -0.0090 c3        1 MOL      0.020072
    137 H62        -3.5000    0.0220   -0.6770 hn        1 MOL      0.307576
    138 H63        -5.8670   -1.4770   -0.0480 h1        1 MOL      0.088732
    139 H64        -7.1200    0.5490   -0.6980 hc        1 MOL     -0.001029
    140 H65        -6.6350    0.5330    1.0160 hc        1 MOL     -0.001029
    141 H66        -5.7110    1.5090   -0.1900 hc        1 MOL     -0.001029
    142 N13        -6.4860   -1.0760   -2.8040 n         1 MOL     -0.786921
    143 C46        -7.8450   -1.2430   -2.4130 c3        1 MOL      0.457195
    144 C47        -8.7030    0.0020   -2.6670 c         1 MOL      0.592621
    145 O19        -8.4150    0.7900   -3.5640 o         1 MOL     -0.566557
    146 C48        -8.4580   -2.4050   -3.2340 c3        1 MOL     -0.764902
    147 H67        -6.2260   -1.3280   -3.7410 hn        1 MOL      0.388003
    148 H68        -7.8870   -1.5720   -1.3810 h1        1 MOL     -0.018618
    149 H69        -8.4990   -2.0720   -4.2670 hc        1 MOL      0.220165
    150 H70        -7.8580   -3.2930   -3.0070 hc        1 MOL      0.220165
    151 H71        -9.4840   -2.5230   -2.9010 hc        1 MOL      0.220165
    152 N14        -9.8090    0.3010   -1.9480 n         1 MOL     -0.608709
    153 C49       -10.3730   -0.4210   -0.7730 c3        1 MOL     -0.024168
    154 C50        -9.8880    0.3540    0.4860 c         1 MOL      0.353691
    155 O20        -9.5820   -0.2850    1.5300 o         1 MOL     -0.485923
    156 C51       -11.9160   -0.2940   -0.8930 c3        1 MOL      0.095455
    157 C52       -12.5530   -0.7780    0.4050 c3        1 MOL     -0.416677
    158 C53       -14.0340   -1.2110    0.2380 c         1 MOL      0.701635
    159 O21       -14.4470   -2.2880    0.7850 o         1 MOL     -0.652192
    160 O22       -14.8490   -0.4880   -0.4250 o         1 MOL     -0.652192
    161 H72       -10.1520    1.2440   -2.0040 hn        1 MOL      0.317777
    162 H73       -10.1070   -1.4780   -0.8330 h1        1 MOL      0.124345
    163 H74       -12.2290   -0.8490   -1.7750 hc        1 MOL      0.020806
    164 H75       -12.2180    0.7060   -1.1850 hc        1 MOL      0.020806
    165 H76       -12.5530    0.0420    1.1260 hc        1 MOL      0.132673
    166 H77       -11.9060   -1.6430    0.5760 hc        1 MOL      0.132673
    167 N15        -9.7300    1.7010    0.4710 n         1 MOL     -0.265703
    168 C54        -9.1600    2.4910    1.5610 c3        1 MOL     -0.367635
    169 H78        -8.1360    2.1660    1.7480 h1        1 MOL      0.157789
    170 H79        -9.1610    3.5450    1.2860 h1        1 MOL      0.157789
    171 H80        -9.7550    2.3500    2.4640 h1        1 MOL      0.157789
    172 H81       -10.2200    2.2360   -0.2330 hn        1 MOL      0.273060
    173 Ca1         2.4480    0.7110   -0.7370 Ca        1 MOL      1.779823
    174 O23         0.3580    2.1440   -1.2640 oh        1 MOL     -0.987083
    175 H82         0.0330    2.9620   -1.6500 ho        1 MOL      0.450014
    176 H83        -0.2310    1.4640   -1.6090 ho        1 MOL      0.450014
    177 O24         0.7600   -1.2770   -1.4310 oh        1 MOL     -0.987083
    178 H84        -0.0890   -1.5830   -1.7470 ho        1 MOL      0.450014
    179 H85         1.3840   -1.5630   -2.0940 ho        1 MOL      0.450014
@<TRIPOS>BOND
     1    1    2 1   
     2    1    4 1   
     3    1    5 1   
     4    1    6 1   
     5    2    3 2   
     6    2    7 1   
     7    7    8 1   
     8    7   15 1   
     9    8    9 1   
    10    8   11 1   
    11    8   16 1   
    12    9   10 2   
    13    9   19 1   
    14   11   12 1   
    15   11   17 1   
    16   11   18 1   
    17   12   13 1   
    18   12   14 1   
    19   19   20 1   
    20   19   28 1   
    21   20   21 1   
    22   20   23 1   
    23   20   29 1   
    24   21   22 2   
    25   21   41 1   
    26   23   24 1   
    27   23   30 1   
    28   23   31 1   
    29   24   25 1   
    30   24   32 1   
    31   24   33 1   
    32   25   26 1   
    33   25   34 1   
    34   25   35 1   
    35   26   27 1   
    36   26   36 1   
    37   26   37 1   
    38   27   38 1   
    39   27   39 1   
    40   27   40 1   
    41   41   42 1   
    42   41   49 1   
    43   42   43 1   
    44   42   45 1   
    45   42   50 1   
    46   43   44 2   
    47   43   53 1   
    48   45   46 1   
    49   45   51 1   
    50   45   52 1   
    51   46   47 1   
    52   46   48 1   
    53   53   54 1   
    54   53   57 1   
    55   54   55 1   
    56   54   58 1   
    57   54   59 1   
    58   55   56 2   
    59   55   60 1   
    60   60   61 1   
    61   60   68 1   
    62   61   62 1   
    63   61   64 1   
    64   61   69 1   
    65   62   63 2   
    66   62   74 1   
    67   64   65 1   
    68   64   70 1   
    69   64   71 1   
    70   65   66 1   
    71   65   67 2   
    72   66   72 1   
    73   66   73 1   
    74   74   75 1   
    75   74   78 1   
    76   75   76 1   
    77   75   79 1   
    78   75   80 1   
    79   76   77 2   
    80   76   81 1   
    81   81   82 1   
    82   81   93 1   
    83   82   83 1   
    84   82   85 1   
    85   82   94 1   
    86   83   84 2   
    87   83  102 1   
    88   85   86 1   
    89   85   95 1   
    90   85   96 1   
    91   86   87 ar  
    92   86   88 ar  
    93   87   89 ar  
    94   87   97 1   
    95   88   90 ar  
    96   88   98 1   
    97   89   91 ar  
    98   89   99 1   
    99   90   91 ar  
   100   90  100 1   
   101   91   92 1   
   102   92  101 1   
   103  102  103 1   
   104  102  110 1   
   105  103  104 1   
   106  103  106 1   
   107  103  111 1   
   108  104  105 2   
   109  104  121 1   
   110  106  107 1   
   111  106  108 1   
   112  106  112 1   
   113  107  109 1   
   114  107  113 1   
   115  107  114 1   
   116  108  115 1   
   117  108  116 1   
   118  108  117 1   
   119  109  118 1   
   120  109  119 1   
   121  109  120 1   
   122  121  122 1   
   123  121  127 1   
   124  122  123 1   
   125  122  125 1   
   126  122  128 1   
   127  123  124 2   
   128  123  132 1   
   129  125  126 1   
   130  125  129 1   
   131  125  130 1   
   132  126  131 1   
   133  132  133 1   
   134  132  137 1   
   135  133  134 1   
   136  133  136 1   
   137  133  138 1   
   138  134  135 2   
   139  134  142 1   
   140  136  139 1   
   141  136  140 1   
   142  136  141 1   
   143  142  143 1   
   144  142  147 1   
   145  143  144 1   
   146  143  146 1   
   147  143  148 1   
   148  144  145 2   
   149  144  152 1   
   150  146  149 1   
   151  146  150 1   
   152  146  151 1   
   153  152  153 1   
   154  152  161 1   
   155  153  154 1   
   156  153  156 1   
   157  153  162 1   
   158  154  155 2   
   159  154  167 1   
   160  156  157 1   
   161  156  163 1   
   162  156  164 1   
   163  157  158 1   
   164  157  165 1   
   165  157  166 1   
   166  158  159 1   
   167  158  160 1   
   168  167  168 1   
   169  167  172 1   
   170  168  169 1   
   171  168  170 1   
   172  168  171 1   
   173  174  175 1   
   174  174  176 1   
   175  177  178 1   
   176  177  179 1   
@<TRIPOS>SUBSTRUCTURE
     1 MOL         1 TEMP              0 ****  ****    0 ROOT
