@<TRIPOS>MOLECULE
MOL
  186   183     1     0     0
SMALL
resp


@<TRIPOS>ATOM
      1 C1        -11.1580    3.1350    4.4380 c3        1 MOL     -0.607865
      2 C2        -11.1550    2.6940    2.9660 c         1 MOL      0.740189
      3 O1        -11.4300    1.5770    2.6120 o         1 MOL     -0.552302
      4 H1        -12.1320    2.9200    4.8790 hc        1 MOL      0.158738
      5 H2        -10.3860    2.5910    4.9820 hc        1 MOL      0.158738
      6 H3        -10.9610    4.2050    4.4980 hc        1 MOL      0.158738
      7 N1        -10.8100    3.5980    2.0430 n         1 MOL     -0.370840
      8 C3        -10.7550    3.2740    0.5860 c3        1 MOL     -0.302509
      9 C4         -9.5320    2.3740    0.2300 c         1 MOL      0.094356
     10 O2         -8.5580    2.4270    0.9130 o         1 MOL     -0.450396
     11 C5        -10.7160    4.4920   -0.3000 c3        1 MOL      0.042041
     12 C6         -9.7440    5.6250    0.0670 c         1 MOL      0.801270
     13 O3         -8.5160    5.3910    0.2110 o         1 MOL     -0.754051
     14 O4        -10.1490    6.7380    0.3530 o         1 MOL     -0.754051
     15 H4        -10.5550    4.5300    2.3670 hn        1 MOL      0.260326
     16 H5        -11.5880    2.6130    0.3420 h1        1 MOL      0.144586
     17 H6        -11.7140    4.9370   -0.3640 hc        1 MOL      0.027540
     18 H7        -10.4870    4.2510   -1.3300 hc        1 MOL      0.027540
     19 N2         -9.7010    1.5440   -0.7460 n         1 MOL      0.131183
     20 C7         -9.0430    0.2960   -0.9580 c3        1 MOL     -0.077252
     21 C8         -7.5500    0.4620   -1.4890 c         1 MOL      0.393816
     22 O5         -7.2160    0.0230   -2.5910 o         1 MOL     -0.494382
     23 C9         -9.9240   -0.5750   -1.8370 c3        1 MOL     -0.309235
     24 C10       -11.1540   -1.0870   -1.1600 c3        1 MOL      0.169200
     25 C11       -11.9460   -2.0690   -2.0520 c3        1 MOL     -0.216979
     26 C12       -12.7650   -1.2400   -2.9770 c3        1 MOL      0.128943
     27 N3        -13.5500   -2.1710   -3.8720 n4        1 MOL     -0.239137
     28 H8        -10.5060    1.7180   -1.3450 hn        1 MOL      0.135431
     29 H9         -8.9540   -0.1680    0.0260 h1        1 MOL      0.135443
     30 H10        -9.3240   -1.4660   -2.0690 hc        1 MOL      0.135475
     31 H11       -10.0760   -0.0720   -2.7890 hc        1 MOL      0.135475
     32 H12       -11.8130   -0.3750   -0.6510 hc        1 MOL      0.000813
     33 H13       -10.7780   -1.5930   -0.2750 hc        1 MOL      0.000813
     34 H14       -12.5890   -2.6390   -1.3800 hc        1 MOL      0.091477
     35 H15       -11.1390   -2.6660   -2.4610 hc        1 MOL      0.091477
     36 H16       -12.0970   -0.5690   -3.5230 hx        1 MOL      0.040947
     37 H17       -13.5460   -0.7150   -2.4260 hx        1 MOL      0.040947
     38 H18       -14.0270   -1.7490   -4.6520 hn        1 MOL      0.268545
     39 H19       -12.9470   -2.8440   -4.3200 hn        1 MOL      0.268545
     40 H20       -14.2430   -2.7100   -3.3660 hn        1 MOL      0.268545
     41 N4         -6.7070    1.2240   -0.7680 n         1 MOL     -0.007455
     42 C13        -5.2040    1.2590   -0.9100 c3        1 MOL     -0.214438
     43 C14        -4.4910    1.5670    0.4060 c         1 MOL      0.607353
     44 O6         -5.0650    2.1960    1.2730 o         1 MOL     -0.698390
     45 C15        -4.8630    2.3400   -1.9640 c3        1 MOL     -0.264244
     46 C16        -5.6120    3.6440   -2.0280 c         1 MOL      0.596728
     47 O7         -5.4020    4.3790   -2.9990 o         1 MOL     -0.651742
     48 O8         -6.3700    3.9750   -1.1180 o         1 MOL     -0.651742
     49 H21        -7.0400    1.6540    0.0760 hn        1 MOL      0.116673
     50 H22        -4.8830    0.3020   -1.3310 h1        1 MOL      0.070421
     51 H23        -5.0760    1.8240   -2.8980 hc        1 MOL      0.122474
     52 H24        -3.7980    2.5580   -1.8670 hc        1 MOL      0.122474
     53 N5         -3.2450    1.1500    0.5920 n         1 MOL     -0.451670
     54 C17        -2.6400   -0.0020   -0.0980 c3        1 MOL     -0.016537
     55 C18        -3.4570   -1.2210    0.0360 c         1 MOL      0.519220
     56 O9         -4.0720   -1.4270    1.0760 o         1 MOL     -0.503744
     57 H25        -2.8450    1.3810    1.4910 hn        1 MOL      0.312335
     58 H26        -1.6560   -0.1450    0.3540 h1        1 MOL      0.080307
     59 H27        -2.4170    0.2030   -1.1490 h1        1 MOL      0.080307
     60 N6         -3.6250   -2.0510   -1.0640 n         1 MOL     -0.270900
     61 C19        -4.4170   -3.2610   -1.0660 c3        1 MOL     -0.144298
     62 C20        -3.6160   -4.5140   -1.1850 c         1 MOL      0.572791
     63 O10        -2.7240   -4.6070   -2.0380 o         1 MOL     -0.516433
     64 C21        -5.5530   -3.1940   -2.1180 c3        1 MOL     -0.054221
     65 C22        -6.5740   -4.3590   -2.0340 c         1 MOL      0.656309
     66 O11        -7.4690   -4.2030   -1.1950 o         1 MOL     -0.684904
     67 O12        -6.6060   -5.2550   -2.8750 o         1 MOL     -0.684904
     68 H28        -3.0510   -1.8350   -1.8600 hn        1 MOL      0.238529
     69 H29        -4.8800   -3.2330   -0.0790 h1        1 MOL      0.050626
     70 H30        -5.1790   -3.0570   -3.1360 hc        1 MOL      0.027469
     71 H31        -6.1030   -2.2870   -1.8600 hc        1 MOL      0.027469
     72 N7         -3.7740   -5.4400   -0.1600 n         1 MOL     -0.363955
     73 C23        -2.9820   -6.7390    0.0660 c3        1 MOL     -0.178808
     74 C24        -1.4760   -6.6030    0.3720 c         1 MOL      0.528106
     75 O13        -0.7760   -7.6690    0.4670 o         1 MOL     -0.548190
     76 H32        -4.5330   -5.2090    0.4640 hn        1 MOL      0.265432
     77 H33        -3.1870   -7.3950   -0.7870 h1        1 MOL      0.138075
     78 H34        -3.3020   -7.3040    0.9410 h1        1 MOL      0.138075
     79 N8         -0.9910   -5.3150    0.4610 n         1 MOL     -0.330837
     80 C25         0.2680   -4.8840    1.1840 c3        1 MOL     -0.061213
     81 C26         0.5220   -3.3850    0.9120 c         1 MOL      0.629952
     82 O14        -0.3460   -2.5450    0.6100 o         1 MOL     -0.557013
     83 C27         0.1550   -5.1350    2.6820 c3        1 MOL      0.375905
     84 C28        -0.6850   -4.2280    3.5250 c3        1 MOL     -0.246508
     85 O15        -0.2090   -6.4110    2.9370 oh        1 MOL     -0.562309
     86 H35        -1.5140   -4.5070    0.1410 hn        1 MOL      0.186639
     87 H36         1.1030   -5.4300    0.7370 h1        1 MOL      0.058260
     88 H37         1.1560   -4.9230    3.0620 h1        1 MOL     -0.075237
     89 H38         0.5450   -6.9050    2.6050 ho        1 MOL      0.375550
     90 H39        -1.7550   -4.3160    3.3150 hc        1 MOL      0.072319
     91 H40        -0.4440   -4.3620    4.5820 hc        1 MOL      0.072319
     92 H41        -0.3900   -3.1910    3.3640 hc        1 MOL      0.072319
     93 N9          1.8710   -3.0830    0.9840 n         1 MOL     -0.426156
     94 C29         2.3810   -1.7360    0.7810 c3        1 MOL     -0.045268
     95 C30         3.5930   -1.8990   -0.1280 c         1 MOL      0.539474
     96 O16         3.6920   -1.2770   -1.1770 o         1 MOL     -0.529979
     97 C31         2.7840   -1.0060    2.1170 c3        1 MOL     -0.019816
     98 C32         1.8090   -1.0170    3.2660 c3        1 MOL     -0.187851
     99 C33         3.0980    0.5100    1.8270 c3        1 MOL     -0.144414
    100 C34         2.3160   -0.4610    4.5570 c3        1 MOL     -0.259157
    101 H42         2.5250   -3.8100    1.2580 hn        1 MOL      0.229085
    102 H43         1.5600   -1.1660    0.3610 h1        1 MOL      0.116482
    103 H44         3.6890   -1.4640    2.4990 hc        1 MOL      0.075465
    104 H45         1.6440   -2.0760    3.4050 hc        1 MOL      0.110284
    105 H46         0.8800   -0.4880    3.0390 hc        1 MOL      0.110284
    106 H47         3.5520    0.9280    2.7280 hc        1 MOL      0.055496
    107 H48         3.8950    0.6350    1.0940 hc        1 MOL      0.055496
    108 H49         2.2820    1.1700    1.5380 hc        1 MOL      0.055496
    109 H50         2.2280    0.6180    4.5850 hc        1 MOL      0.077850
    110 H51         1.7660   -0.9060    5.3910 hc        1 MOL      0.077850
    111 H52         3.4050   -0.5230    4.5990 hc        1 MOL      0.077850
    112 N10         4.5690   -2.7290    0.2270 n         1 MOL     -0.293745
    113 C35         5.8060   -3.0920   -0.4190 c3        1 MOL     -0.167575
    114 C36         6.9580   -2.9840    0.6040 c         1 MOL      0.660539
    115 O17         6.8010   -3.2960    1.7740 o         1 MOL     -0.510704
    116 C37         5.5750   -4.5530   -0.9900 c3        1 MOL      0.475002
    117 C38         4.3110   -4.7730   -1.8060 c3        1 MOL     -0.260753
    118 O18         6.6030   -4.8940   -1.8250 oh        1 MOL     -0.693308
    119 H53         4.5630   -2.8650    1.2280 hn        1 MOL      0.168186
    120 H54         6.0450   -2.3400   -1.1670 h1        1 MOL      0.144256
    121 H55         5.6240   -5.2980   -0.1980 h1        1 MOL     -0.039578
    122 H56         6.5050   -5.8410   -1.9570 ho        1 MOL      0.413327
    123 H57         4.3750   -5.7890   -2.1820 hc        1 MOL      0.068512
    124 H58         3.5120   -4.7440   -1.0570 hc        1 MOL      0.068512
    125 H59         4.1970   -4.0710   -2.6220 hc        1 MOL      0.068512
    126 N11         8.1590   -2.4550    0.1510 n         1 MOL     -0.686372
    127 C39         9.4440   -2.4610    0.9400 c3        1 MOL      0.069947
    128 C40         9.8310   -1.0260    1.2850 c         1 MOL      0.734843
    129 O19        10.1430   -0.7930    2.4620 o         1 MOL     -0.616138
    130 C41        10.6920   -3.2100    0.2720 c3        1 MOL      0.424633
    131 C42        12.0530   -3.0180    0.9860 c3        1 MOL     -0.433597
    132 O20        10.8000   -2.8300   -1.0410 oh        1 MOL     -0.632181
    133 H60         8.0910   -2.1070   -0.7900 hn        1 MOL      0.338871
    134 H61         9.4320   -2.9770    1.9050 h1        1 MOL      0.058971
    135 H62        10.4330   -4.2640    0.2390 h1        1 MOL     -0.013019
    136 H63        10.0160   -3.2030   -1.4480 ho        1 MOL      0.393322
    137 H64        12.0060   -3.6390    1.8820 hc        1 MOL      0.117651
    138 H65        12.7590   -3.5670    0.3710 hc        1 MOL      0.117651
    139 H66        12.4110   -2.0020    1.1330 hc        1 MOL      0.117651
    140 N12         9.8310   -0.0870    0.3660 n         1 MOL     -0.517490
    141 C43        10.2660    1.3010    0.5970 c3        1 MOL      0.030590
    142 C44         9.4240    2.2220   -0.3260 c         1 MOL      0.548593
    143 O21         8.9070    1.8590   -1.3740 o         1 MOL     -0.509217
    144 C45        11.7470    1.4950    0.4080 c3        1 MOL     -0.211998
    145 C46        12.2770    0.8950   -0.9320 c3        1 MOL     -0.045910
    146 C47        13.8920    0.9060   -0.9560 c3        1 MOL     -0.066700
    147 C48        14.5670    0.7970   -2.3360 c3        1 MOL      0.005577
    148 N13        15.8940    0.1960   -2.2920 n4        1 MOL     -0.073784
    149 H67         9.8170   -0.4240   -0.5840 hn        1 MOL      0.240331
    150 H68        10.0680    1.5980    1.6270 h1        1 MOL      0.116050
    151 H69        12.3270    1.0150    1.1880 hc        1 MOL      0.090318
    152 H70        12.0930    2.5240    0.4920 hc        1 MOL      0.090318
    153 H71        11.9330    1.5360   -1.7470 hc        1 MOL      0.067578
    154 H72        11.9040   -0.1290   -0.9860 hc        1 MOL      0.067578
    155 H73        14.0780    0.0500   -0.3100 hc        1 MOL      0.043001
    156 H74        14.3290    1.7350   -0.4050 hc        1 MOL      0.043001
    157 H75        14.5900    1.7990   -2.7810 hx        1 MOL      0.079559
    158 H76        13.9010    0.2420   -2.9860 hx        1 MOL      0.079559
    159 H77        15.9310   -0.5870   -1.6550 hn        1 MOL      0.190950
    160 H78        16.3720    0.0280   -3.1670 hn        1 MOL      0.190950
    161 H79        16.5050    0.8250   -1.7910 hn        1 MOL      0.190950
    162 N14         9.3930    3.5010   -0.0020 n         1 MOL     -0.430849
    163 C49         8.7510    4.5350   -0.8420 c3        1 MOL      0.024558
    164 C50         7.1950    4.6310   -0.8570 c         1 MOL      0.423511
    165 O22         6.6500    4.7300   -1.9570 o         1 MOL     -0.510663
    166 C51         9.3430    5.9080   -0.4190 c3        1 MOL      0.136849
    167 C52         9.1520    6.9470   -1.5080 c3        1 MOL     -0.272652
    168 C53         9.4960    8.3920   -1.0950 c         1 MOL      0.661369
    169 O23         8.8630    8.9540   -0.1790 o         1 MOL     -0.632622
    170 O24        10.6280    8.8590   -1.4830 o         1 MOL     -0.632622
    171 H80         9.9480    3.7920    0.7860 hn        1 MOL      0.227593
    172 H81         9.0380    4.3800   -1.8800 h1        1 MOL      0.097056
    173 H82        10.3830    5.7530   -0.1380 hc        1 MOL      0.005541
    174 H83         8.8780    6.2500    0.5000 hc        1 MOL      0.005541
    175 H84         8.0690    6.9420   -1.5960 hc        1 MOL      0.054050
    176 H85         9.6680    6.6820   -2.4230 hc        1 MOL      0.054050
    177 N15         6.4180    4.1750    0.1730 n         1 MOL     -0.288360
    178 C54         6.7070    4.1030    1.6100 c3        1 MOL     -0.098725
    179 H86         5.7710    4.1270    2.1690 h1        1 MOL      0.064940
    180 H87         7.2350    3.1750    1.8280 h1        1 MOL      0.064940
    181 H88         7.3250    4.9520    1.9000 h1        1 MOL      0.064940
    182 H89         5.4770    3.9900   -0.1430 hn        1 MOL      0.261790
    183 Ca1        -6.5050    4.3990    1.4800 Ca        1 MOL      1.694183
    184 O25        -6.9760    2.6470    3.6800 oh        1 MOL     -0.868197
    185 H90        -6.8460    1.7440    3.3900 ho        1 MOL      0.442602
    186 H91        -7.1390    2.5790    4.6180 ho        1 MOL      0.442602
@<TRIPOS>BOND
     1    1    2 1   
     2    1    4 1   
     3    1    5 1   
     4    1    6 1   
     5    2    3 2   
     6    2    7 1   
     7    7    8 1   
     8    7   15 1   
     9    8    9 1   
    10    8   11 1   
    11    8   16 1   
    12    9   10 2   
    13    9   19 1   
    14   11   12 1   
    15   11   17 1   
    16   11   18 1   
    17   12   13 1   
    18   12   14 1   
    19   19   20 1   
    20   19   28 1   
    21   20   21 1   
    22   20   23 1   
    23   20   29 1   
    24   21   22 2   
    25   21   41 1   
    26   23   24 1   
    27   23   30 1   
    28   23   31 1   
    29   24   25 1   
    30   24   32 1   
    31   24   33 1   
    32   25   26 1   
    33   25   34 1   
    34   25   35 1   
    35   26   27 1   
    36   26   36 1   
    37   26   37 1   
    38   27   38 1   
    39   27   39 1   
    40   27   40 1   
    41   41   42 1   
    42   41   49 1   
    43   42   43 1   
    44   42   45 1   
    45   42   50 1   
    46   43   44 2   
    47   43   53 1   
    48   45   46 1   
    49   45   51 1   
    50   45   52 1   
    51   46   47 1   
    52   46   48 1   
    53   53   54 1   
    54   53   57 1   
    55   54   55 1   
    56   54   58 1   
    57   54   59 1   
    58   55   56 2   
    59   55   60 1   
    60   60   61 1   
    61   60   68 1   
    62   61   62 1   
    63   61   64 1   
    64   61   69 1   
    65   62   63 2   
    66   62   72 1   
    67   64   65 1   
    68   64   70 1   
    69   64   71 1   
    70   65   66 1   
    71   65   67 1   
    72   72   73 1   
    73   72   76 1   
    74   73   74 1   
    75   73   77 1   
    76   73   78 1   
    77   74   75 2   
    78   74   79 1   
    79   79   80 1   
    80   79   86 1   
    81   80   81 1   
    82   80   83 1   
    83   80   87 1   
    84   81   82 2   
    85   81   93 1   
    86   83   84 1   
    87   83   85 1   
    88   83   88 1   
    89   84   90 1   
    90   84   91 1   
    91   84   92 1   
    92   85   89 1   
    93   93   94 1   
    94   93  101 1   
    95   94   95 1   
    96   94   97 1   
    97   94  102 1   
    98   95   96 2   
    99   95  112 1   
   100   97   98 1   
   101   97   99 1   
   102   97  103 1   
   103   98  100 1   
   104   98  104 1   
   105   98  105 1   
   106   99  106 1   
   107   99  107 1   
   108   99  108 1   
   109  100  109 1   
   110  100  110 1   
   111  100  111 1   
   112  112  113 1   
   113  112  119 1   
   114  113  114 1   
   115  113  116 1   
   116  113  120 1   
   117  114  115 2   
   118  114  126 1   
   119  116  117 1   
   120  116  118 1   
   121  116  121 1   
   122  117  123 1   
   123  117  124 1   
   124  117  125 1   
   125  118  122 1   
   126  126  127 1   
   127  126  133 1   
   128  127  128 1   
   129  127  130 1   
   130  127  134 1   
   131  128  129 2   
   132  128  140 1   
   133  130  131 1   
   134  130  132 1   
   135  130  135 1   
   136  131  137 1   
   137  131  138 1   
   138  131  139 1   
   139  132  136 1   
   140  140  141 1   
   141  140  149 1   
   142  141  142 1   
   143  141  144 1   
   144  141  150 1   
   145  142  143 2   
   146  142  162 1   
   147  144  145 1   
   148  144  151 1   
   149  144  152 1   
   150  145  146 1   
   151  145  153 1   
   152  145  154 1   
   153  146  147 1   
   154  146  155 1   
   155  146  156 1   
   156  147  148 1   
   157  147  157 1   
   158  147  158 1   
   159  148  159 1   
   160  148  160 1   
   161  148  161 1   
   162  162  163 1   
   163  162  171 1   
   164  163  164 1   
   165  163  166 1   
   166  163  172 1   
   167  164  165 2   
   168  164  177 1   
   169  166  167 1   
   170  166  173 1   
   171  166  174 1   
   172  167  168 1   
   173  167  175 1   
   174  167  176 1   
   175  168  169 1   
   176  168  170 1   
   177  177  178 1   
   178  177  182 1   
   179  178  179 1   
   180  178  180 1   
   181  178  181 1   
   182  184  185 1   
   183  184  186 1   
@<TRIPOS>SUBSTRUCTURE
     1 MOL         1 TEMP              0 ****  ****    0 ROOT
