@<TRIPOS>MOLECULE
MOL
  186   183     1     0     0
SMALL
resp


@<TRIPOS>ATOM
      1 C1          4.8000    3.7800   -3.8250 c3        1 MOL     -0.470294
      2 C2          5.4950    2.9520   -2.7030 c         1 MOL      0.999008
      3 O1          4.9350    2.6500   -1.6710 o         1 MOL     -0.833548
      4 H1          5.5050    3.9530   -4.6380 hc        1 MOL      0.115017
      5 H2          3.9390    3.2300   -4.2030 hc        1 MOL      0.115017
      6 H3          4.4720    4.7380   -3.4190 hc        1 MOL      0.115017
      7 N1          6.7230    2.5630   -2.7550 n         1 MOL     -0.696475
      8 C3          7.4020    1.5290   -2.0210 c3        1 MOL      0.207391
      9 C4          6.4890    0.3190   -1.5930 c         1 MOL      0.238931
     10 O2          6.0360    0.2720   -0.4170 o         1 MOL     -0.338417
     11 C5          8.2370    2.1520   -0.9260 c3        1 MOL     -0.008453
     12 C6          7.7470    3.3830   -0.1190 c         1 MOL      0.708447
     13 O3          6.6700    3.2570    0.4870 o         1 MOL     -0.730829
     14 O4          8.3230    4.4930   -0.1630 o         1 MOL     -0.730829
     15 H4          7.2400    2.9150   -3.5550 hn        1 MOL      0.299085
     16 H5          8.2320    1.1520   -2.6190 h1        1 MOL      0.058241
     17 H6          9.2490    2.3650   -1.2730 hc        1 MOL     -0.021403
     18 H7          8.4670    1.3980   -0.1790 hc        1 MOL     -0.021403
     19 N2          6.1480   -0.5240   -2.5940 n         1 MOL     -0.513441
     20 C7          5.3480   -1.7620   -2.5240 c3        1 MOL      0.419081
     21 C8          5.9780   -2.8420   -1.6980 c         1 MOL      0.154818
     22 O5          6.3620   -3.9250   -2.2280 o         1 MOL     -0.521923
     23 C9          3.8550   -1.5440   -2.1050 c3        1 MOL      0.076332
     24 C10         3.1260   -2.8840   -2.0310 c3        1 MOL      0.145020
     25 C11         2.9600   -0.5110   -2.8370 c3        1 MOL     -0.656423
     26 C12         2.8970   -3.5620   -3.4100 c3        1 MOL     -0.390386
     27 H8          6.2920   -0.2750   -3.5570 hn        1 MOL      0.283156
     28 H9          5.3130   -2.1130   -3.5540 h1        1 MOL     -0.032304
     29 H10         3.8430   -1.1710   -1.0800 hc        1 MOL      0.078075
     30 H11         2.1560   -2.7780   -1.5240 hc        1 MOL     -0.007868
     31 H12         3.6720   -3.5290   -1.3410 hc        1 MOL     -0.007868
     32 H13         2.9320   -0.6330   -3.9140 hc        1 MOL      0.160347
     33 H14         1.9160   -0.6770   -2.5560 hc        1 MOL      0.160347
     34 H15         3.0780    0.5370   -2.5540 hc        1 MOL      0.160347
     35 H16         2.4520   -2.7970   -4.0340 hc        1 MOL      0.083414
     36 H17         3.8870   -3.9380   -3.6750 hc        1 MOL      0.083414
     37 H18         2.2430   -4.4350   -3.2880 hc        1 MOL      0.083414
     38 N3          6.3280   -2.4910   -0.4230 n         1 MOL      0.036749
     39 C13         6.9830   -3.3850    0.4770 c3        1 MOL      0.188513
     40 C14         6.0350   -4.5200    0.9890 c         1 MOL      0.520402
     41 O6          6.4140   -5.6760    0.8550 o         1 MOL     -0.582592
     42 C15         7.7250   -2.6380    1.6010 c3        1 MOL     -0.281736
     43 C16         8.5910   -1.5510    1.0700 c         1 MOL      0.791128
     44 O7          8.7310   -0.4590    1.6990 o         1 MOL     -0.728403
     45 O8          9.2230   -1.7860    0.0400 o         1 MOL     -0.728403
     46 H19         6.1070   -1.5390   -0.1710 hn        1 MOL      0.157940
     47 H20         7.7600   -3.8800   -0.0960 h1        1 MOL      0.008887
     48 H21         8.2900   -3.2450    2.3090 hc        1 MOL      0.046703
     49 H22         6.9520   -2.0280    2.0720 hc        1 MOL      0.046703
     50 N4          4.8420   -4.3380    1.6070 n         1 MOL     -0.508741
     51 C17         4.0150   -3.1770    1.8650 c3        1 MOL      0.030243
     52 C18         4.3140   -2.4270    3.1770 c         1 MOL      0.605453
     53 O9          5.1260   -2.8510    3.9930 o         1 MOL     -0.582514
     54 H23         4.4510   -5.1940    1.9760 hn        1 MOL      0.296511
     55 H24         2.9620   -3.4680    1.8970 h1        1 MOL      0.010421
     56 H25         4.1560   -2.4980    1.0240 h1        1 MOL      0.010421
     57 N5          3.6900   -1.2930    3.4440 n         1 MOL     -0.591481
     58 C19         2.2860   -1.0550    3.0480 c3        1 MOL      0.355963
     59 C20         2.0920   -0.7750    1.5100 c         1 MOL      0.594128
     60 O10         2.9640   -0.2490    0.8880 o         1 MOL     -0.700983
     61 C21         1.5870    0.0930    3.8700 c3        1 MOL     -0.459293
     62 C22         2.2490    1.4630    3.7960 c         1 MOL      0.688818
     63 O11         3.3260    1.6140    3.1480 o         1 MOL     -0.643109
     64 O12         1.6880    2.4410    4.3650 o         1 MOL     -0.643109
     65 H26         4.0690   -0.8050    4.2430 hn        1 MOL      0.333958
     66 H27         1.7360   -1.9710    3.2390 h1        1 MOL     -0.069355
     67 H28         1.5730   -0.2430    4.9030 hc        1 MOL      0.104374
     68 H29         0.5740    0.1050    3.4560 hc        1 MOL      0.104374
     69 N6          0.9890   -1.2440    0.9100 n         1 MOL     -0.343826
     70 C23        -0.2710   -1.6780    1.5460 c3        1 MOL      0.153263
     71 C24        -0.6770   -3.0700    1.0720 c         1 MOL      0.374352
     72 O13         0.0860   -3.6750    0.2940 o         1 MOL     -0.462848
     73 H30         0.9180   -1.0120   -0.0670 hn        1 MOL      0.222134
     74 H31        -1.0780   -0.9980    1.2820 h1        1 MOL      0.008155
     75 H32        -0.2420   -1.6150    2.6350 h1        1 MOL      0.008155
     76 N7         -1.8070   -3.6600    1.5400 n         1 MOL     -0.349336
     77 C25        -2.4310   -4.9360    1.0590 c3        1 MOL     -0.029869
     78 C26        -2.9180   -4.8270   -0.4070 c         1 MOL      0.399056
     79 O14        -2.9890   -5.8940   -1.0980 o         1 MOL     -0.513168
     80 C27        -3.5070   -5.3640    2.1030 c3        1 MOL     -0.097827
     81 C28        -4.5300   -4.3670    2.4730 c3        1 MOL     -0.024331
     82 C29        -5.6180   -4.1730    1.3870 c         1 MOL      0.470211
     83 N8         -6.4090   -5.1910    0.9880 n         1 MOL     -0.665325
     84 O15        -5.7320   -3.1410    0.7640 o         1 MOL     -0.557923
     85 H33        -2.2260   -3.0950    2.2670 hn        1 MOL      0.276449
     86 H34        -1.5850   -5.6200    0.9860 h1        1 MOL      0.129765
     87 H35        -2.9500   -5.6140    3.0090 hc        1 MOL      0.048668
     88 H36        -4.0340   -6.2350    1.7130 hc        1 MOL      0.048668
     89 H37        -3.9810   -3.4430    2.6900 hc        1 MOL      0.033441
     90 H38        -5.0620   -4.6650    3.3740 hc        1 MOL      0.033441
     91 H39        -6.3260   -6.1150    1.3760 hn        1 MOL      0.337152
     92 H40        -6.9210   -5.0060    0.1280 hn        1 MOL      0.337152
     93 N9         -3.2390   -3.6010   -0.9760 n         1 MOL     -0.108235
     94 C30        -3.3320   -3.4080   -2.4050 c3        1 MOL     -0.152235
     95 C31        -4.6420   -2.7470   -2.9520 c         1 MOL      0.368988
     96 O16        -4.9080   -2.7600   -4.1890 o         1 MOL     -0.549695
     97 C32        -2.0270   -2.6580   -2.9460 c3        1 MOL      0.212639
     98 C33        -0.7840   -3.4580   -3.0610 c3        1 MOL     -0.204574
     99 C34        -1.7790   -1.4150   -2.1840 c3        1 MOL     -0.204574
    100 H41        -3.0630   -2.7760   -0.4240 hn        1 MOL      0.130331
    101 H42        -3.2420   -4.3930   -2.8810 h1        1 MOL      0.126314
    102 H43        -2.1990   -2.4410   -3.9920 hc        1 MOL     -0.009742
    103 H44         0.0050   -2.7280   -3.2720 hc        1 MOL      0.053843
    104 H45        -0.5700   -3.9700   -2.1280 hc        1 MOL      0.053843
    105 H46        -0.8990   -4.2750   -3.7760 hc        1 MOL      0.053843
    106 H47        -0.9420   -0.8810   -2.6390 hc        1 MOL      0.053843
    107 H48        -2.6120   -0.7370   -2.0090 hc        1 MOL      0.053843
    108 H49        -1.3010   -1.6600   -1.2300 hc        1 MOL      0.053843
    109 N10        -5.5370   -2.1820   -2.1480 n         1 MOL     -0.183082
    110 C35        -6.8230   -1.5300   -2.4430 c3        1 MOL     -0.045923
    111 C36        -6.8340   -0.0470   -2.0950 c         1 MOL      0.667547
    112 O17        -7.6640    0.5730   -2.7200 o         1 MOL     -0.572199
    113 C37        -8.0030   -2.2700   -1.6870 c3        1 MOL     -0.256946
    114 C38        -8.0720   -3.7050   -2.0140 c         1 MOL      0.667052
    115 N11        -8.0860   -4.1120   -3.2360 n         1 MOL     -0.755299
    116 O18        -8.1470   -4.5490   -1.1510 o         1 MOL     -0.576223
    117 H50        -5.3290   -2.2130   -1.1620 hn        1 MOL      0.268799
    118 H51        -7.0190   -1.5540   -3.5150 h1        1 MOL      0.081972
    119 H52        -8.9350   -1.7410   -1.9080 hc        1 MOL      0.102781
    120 H53        -7.8320   -2.1390   -0.6210 hc        1 MOL      0.102781
    121 H54        -8.1230   -3.5080   -4.0440 hn        1 MOL      0.365065
    122 H55        -7.9770   -5.1040   -3.3820 hn        1 MOL      0.365065
    123 N12        -6.0030    0.5520   -1.2010 n         1 MOL     -0.579636
    124 C39        -6.3660    1.9050   -0.7660 c3        1 MOL      0.263762
    125 C40        -5.0960    2.6590   -0.4050 c         1 MOL      0.400779
    126 O19        -4.1050    2.1160    0.0790 o         1 MOL     -0.404647
    127 C41        -7.2990    1.7310    0.4690 c3        1 MOL     -0.229104
    128 C42        -6.6480    1.0920    1.7210 ca        1 MOL     -0.022981
    129 C43        -6.0920    1.9140    2.8100 ca        1 MOL     -0.058806
    130 C44        -6.6440   -0.3010    1.9100 ca        1 MOL     -0.058806
    131 C45        -5.5320    1.3300    3.9680 ca        1 MOL     -0.306858
    132 C46        -6.1020   -0.8100    3.1180 ca        1 MOL     -0.306858
    133 C47        -5.5050   -0.0370    4.1680 ca        1 MOL      0.413746
    134 O20        -5.1400   -0.7050    5.3200 oh        1 MOL     -0.623537
    135 H56        -5.4250    0.0440   -0.5520 hn        1 MOL      0.240542
    136 H57        -6.8780    2.4420   -1.5700 h1        1 MOL      0.018019
    137 H58        -8.2130    1.2030    0.1740 hc        1 MOL      0.091124
    138 H59        -7.7160    2.7260    0.6350 hc        1 MOL      0.091124
    139 H60        -6.1240    2.9810    2.6910 ha        1 MOL      0.090768
    140 H61        -7.1520   -0.9560    1.2030 ha        1 MOL      0.090768
    141 H62        -5.1180    2.0720    4.6380 ha        1 MOL      0.164218
    142 H63        -6.1930   -1.8530    3.3590 ha        1 MOL      0.164218
    143 H64        -4.6140   -0.1760    5.9310 ho        1 MOL      0.444235
    144 N13        -5.1610    4.0240   -0.4820 n         1 MOL     -0.572281
    145 C48        -4.2740    5.0720    0.0440 c3        1 MOL     -0.151023
    146 C49        -2.9480    5.2210   -0.7240 c         1 MOL      0.451605
    147 O21        -2.3950    6.3150   -0.6570 o         1 MOL     -0.501524
    148 C50        -4.0700    4.9380    1.5600 c3        1 MOL      0.173777
    149 C51        -5.4160    5.4650    2.2230 c3        1 MOL     -0.323828
    150 C52        -5.2910    5.4250    3.7690 c         1 MOL      0.791989
    151 O22        -6.3300    5.0890    4.4140 o         1 MOL     -0.739313
    152 O23        -4.2460    5.7720    4.2580 o         1 MOL     -0.739313
    153 H65        -5.9900    4.4070   -0.9160 hn        1 MOL      0.336947
    154 H66        -4.8920    5.9600   -0.1250 h1        1 MOL      0.128962
    155 H67        -3.1960    5.4590    1.9430 hc        1 MOL      0.065375
    156 H68        -3.9750    3.8790    1.8240 hc        1 MOL      0.065375
    157 H69        -6.2610    4.9380    1.7650 hc        1 MOL      0.031539
    158 H70        -5.4740    6.4950    1.8710 hc        1 MOL      0.031539
    159 N14        -2.3660    4.1860   -1.3560 n         1 MOL     -0.359017
    160 C53        -1.0540    4.2580   -1.9640 c3        1 MOL     -0.049184
    161 C54        -1.1420    4.9300   -3.3310 c         1 MOL      0.564489
    162 O24        -0.2460    5.7740   -3.6040 o         1 MOL     -0.539991
    163 C55        -0.5330    2.7840   -2.0640 c3        1 MOL     -0.302267
    164 C56        -0.2450    2.1380   -0.7210 c3        1 MOL      0.417000
    165 C57         0.9370    2.7080    0.0070 c         1 MOL      0.493024
    166 O25         2.1010    2.2750   -0.0750 o         1 MOL     -0.582591
    167 O26         0.7470    3.7350    0.6720 o         1 MOL     -0.582591
    168 H71        -2.7640    3.2720   -1.1890 hn        1 MOL      0.270146
    169 H72        -0.3910    4.8410   -1.3120 h1        1 MOL      0.140119
    170 H73         0.4020    2.8590   -2.6320 hc        1 MOL      0.050134
    171 H74        -1.2790    2.2230   -2.6250 hc        1 MOL      0.050134
    172 H75        -0.0060    1.1020   -0.9670 hc        1 MOL     -0.131364
    173 H76        -1.0540    2.1450    0.0150 hc        1 MOL     -0.131364
    174 N15        -2.1620    4.5960   -4.1240 n         1 MOL     -0.298050
    175 C58        -2.6320    5.2270   -5.3680 c3        1 MOL     -0.270257
    176 H77        -1.7900    5.3610   -6.0480 h1        1 MOL      0.107429
    177 H78        -3.3810    4.5900   -5.8380 h1        1 MOL      0.107429
    178 H79        -3.0710    6.1990   -5.1400 h1        1 MOL      0.107429
    179 H80        -2.7440    3.7940   -3.9400 hn        1 MOL      0.252871
    180 Ca1         4.4450    1.9480    0.7950 Ca        1 MOL      1.732050
    181 O27         6.1390    1.0130    2.6680 oh        1 MOL     -0.875268
    182 H81         6.0980    1.1490    3.6160 ho        1 MOL      0.399941
    183 H82         6.9710    0.5480    2.5370 ho        1 MOL      0.399941
    184 O28         3.4390    4.1980    1.6080 oh        1 MOL     -0.875268
    185 H83         2.7550    4.0600    0.9630 ho        1 MOL      0.399941
    186 H84         3.5960    5.1420    1.5910 ho        1 MOL      0.399941
@<TRIPOS>BOND
     1    1    2 1   
     2    1    4 1   
     3    1    5 1   
     4    1    6 1   
     5    2    3 2   
     6    2    7 1   
     7    7    8 1   
     8    7   15 1   
     9    8    9 1   
    10    8   11 1   
    11    8   16 1   
    12    9   10 2   
    13    9   19 1   
    14   11   12 1   
    15   11   17 1   
    16   11   18 1   
    17   12   13 1   
    18   12   14 1   
    19   19   20 1   
    20   19   27 1   
    21   20   21 1   
    22   20   23 1   
    23   20   28 1   
    24   21   22 2   
    25   21   38 1   
    26   23   24 1   
    27   23   25 1   
    28   23   29 1   
    29   24   26 1   
    30   24   30 1   
    31   24   31 1   
    32   25   32 1   
    33   25   33 1   
    34   25   34 1   
    35   26   35 1   
    36   26   36 1   
    37   26   37 1   
    38   38   39 1   
    39   38   46 1   
    40   39   40 1   
    41   39   42 1   
    42   39   47 1   
    43   40   41 2   
    44   40   50 1   
    45   42   43 1   
    46   42   48 1   
    47   42   49 1   
    48   43   44 1   
    49   43   45 1   
    50   50   51 1   
    51   50   54 1   
    52   51   52 1   
    53   51   55 1   
    54   51   56 1   
    55   52   53 2   
    56   52   57 1   
    57   57   58 1   
    58   57   65 1   
    59   58   59 1   
    60   58   61 1   
    61   58   66 1   
    62   59   60 2   
    63   59   69 1   
    64   61   62 1   
    65   61   67 1   
    66   61   68 1   
    67   62   63 1   
    68   62   64 1   
    69   69   70 1   
    70   69   73 1   
    71   70   71 1   
    72   70   74 1   
    73   70   75 1   
    74   71   72 2   
    75   71   76 1   
    76   76   77 1   
    77   76   85 1   
    78   77   78 1   
    79   77   80 1   
    80   77   86 1   
    81   78   79 2   
    82   78   93 1   
    83   80   81 1   
    84   80   87 1   
    85   80   88 1   
    86   81   82 1   
    87   81   89 1   
    88   81   90 1   
    89   82   83 1   
    90   82   84 2   
    91   83   91 1   
    92   83   92 1   
    93   93   94 1   
    94   93  100 1   
    95   94   95 1   
    96   94   97 1   
    97   94  101 1   
    98   95   96 2   
    99   95  109 1   
   100   97   98 1   
   101   97   99 1   
   102   97  102 1   
   103   98  103 1   
   104   98  104 1   
   105   98  105 1   
   106   99  106 1   
   107   99  107 1   
   108   99  108 1   
   109  109  110 1   
   110  109  117 1   
   111  110  111 1   
   112  110  113 1   
   113  110  118 1   
   114  111  112 2   
   115  111  123 1   
   116  113  114 1   
   117  113  119 1   
   118  113  120 1   
   119  114  115 1   
   120  114  116 2   
   121  115  121 1   
   122  115  122 1   
   123  123  124 1   
   124  123  135 1   
   125  124  125 1   
   126  124  127 1   
   127  124  136 1   
   128  125  126 2   
   129  125  144 1   
   130  127  128 1   
   131  127  137 1   
   132  127  138 1   
   133  128  129 ar  
   134  128  130 ar  
   135  129  131 ar  
   136  129  139 1   
   137  130  132 ar  
   138  130  140 1   
   139  131  133 ar  
   140  131  141 1   
   141  132  133 ar  
   142  132  142 1   
   143  133  134 1   
   144  134  143 1   
   145  144  145 1   
   146  144  153 1   
   147  145  146 1   
   148  145  148 1   
   149  145  154 1   
   150  146  147 2   
   151  146  159 1   
   152  148  149 1   
   153  148  155 1   
   154  148  156 1   
   155  149  150 1   
   156  149  157 1   
   157  149  158 1   
   158  150  151 1   
   159  150  152 1   
   160  159  160 1   
   161  159  168 1   
   162  160  161 1   
   163  160  163 1   
   164  160  169 1   
   165  161  162 2   
   166  161  174 1   
   167  163  164 1   
   168  163  170 1   
   169  163  171 1   
   170  164  165 1   
   171  164  172 1   
   172  164  173 1   
   173  165  166 1   
   174  165  167 1   
   175  174  175 1   
   176  174  179 1   
   177  175  176 1   
   178  175  177 1   
   179  175  178 1   
   180  181  182 1   
   181  181  183 1   
   182  184  185 1   
   183  184  186 1   
@<TRIPOS>SUBSTRUCTURE
     1 MOL         1 TEMP              0 ****  ****    0 ROOT
