@<TRIPOS>MOLECULE
MOL
  185   180     1     0     0
SMALL
resp


@<TRIPOS>ATOM
      1 C1          5.5250    0.8650    3.6690 c3        1 MOL     -0.370266
      2 C2          6.4910    1.1660    2.4880 c         1 MOL      0.588393
      3 O1          5.9990    1.3020    1.3880 o         1 MOL     -0.450580
      4 H1          4.5710    0.5130    3.2760 hc        1 MOL      0.097930
      5 H2          5.9600    0.0970    4.3080 hc        1 MOL      0.097930
      6 H3          5.3650    1.7740    4.2480 hc        1 MOL      0.097930
      7 N1          7.8240    1.1700    2.7640 n         1 MOL     -0.547972
      8 C3          8.7610    1.3680    1.6680 c3        1 MOL      0.055361
      9 C4          8.5760    0.3790    0.4730 c         1 MOL      0.477197
     10 O2          8.7690    0.8100   -0.6750 o         1 MOL     -0.507262
     11 C5          8.9110    2.8490    1.2330 c3        1 MOL     -0.246627
     12 C6          9.2590    3.7330    2.4290 c         1 MOL      0.772329
     13 O3          8.6290    4.7840    2.6740 o         1 MOL     -0.681437
     14 O4         10.2960    3.5130    3.0310 o         1 MOL     -0.681437
     15 H4          8.0760    1.0770    3.7470 hn        1 MOL      0.344336
     16 H5          9.7230    1.0830    2.1000 h1        1 MOL      0.050439
     17 H6          7.9570    3.2300    0.8890 hc        1 MOL      0.069305
     18 H7          9.6140    2.9250    0.4050 hc        1 MOL      0.069305
     19 N2          8.2050   -0.8660    0.7330 n         1 MOL     -0.471229
     20 C7          7.9320   -1.9150   -0.2890 c3        1 MOL      0.212436
     21 C8          6.4740   -2.5660   -0.1840 c         1 MOL      0.482417
     22 O5          6.3240   -3.7810   -0.4140 o         1 MOL     -0.547687
     23 C9          9.0820   -2.9820   -0.2920 c3        1 MOL     -0.246074
     24 C10        10.5210   -2.3390   -0.5570 c3        1 MOL      0.090504
     25 C11        11.4360   -3.4870   -0.9890 c3        1 MOL     -0.078631
     26 C12        12.7390   -2.8580   -1.2940 c3        1 MOL      0.014748
     27 N3         13.4660   -3.8280   -2.1900 n4        1 MOL     -0.137204
     28 H8          8.1290   -1.1950    1.6830 hn        1 MOL      0.259764
     29 H9          7.8980   -1.4990   -1.2960 h1        1 MOL      0.059639
     30 H10         8.8440   -3.6760   -1.0930 hc        1 MOL      0.065544
     31 H11         9.0450   -3.6140    0.6020 hc        1 MOL      0.065544
     32 H12        10.9300   -1.9610    0.3850 hc        1 MOL      0.029656
     33 H13        10.4840   -1.4700   -1.2060 hc        1 MOL      0.029656
     34 H14        11.1200   -4.0410   -1.8750 hc        1 MOL      0.046809
     35 H15        11.5830   -4.1560   -0.1380 hc        1 MOL      0.046809
     36 H16        13.3400   -2.6160   -0.4180 hx        1 MOL      0.081970
     37 H17        12.5710   -1.9520   -1.8730 hx        1 MOL      0.081970
     38 H18        13.8980   -4.5590   -1.6410 hn        1 MOL      0.218437
     39 H19        12.8700   -4.4250   -2.7370 hn        1 MOL      0.218437
     40 H20        14.1950   -3.3620   -2.7230 hn        1 MOL      0.218437
     41 N4          5.5000   -1.7330    0.1350 n         1 MOL     -0.376327
     42 C13         4.0380   -2.0360    0.2030 c3        1 MOL     -0.059234
     43 C14         3.4780   -2.5420   -1.1910 c         1 MOL      0.570351
     44 O6          3.6510   -1.8030   -2.2230 o         1 MOL     -0.497919
     45 C15         3.3150   -0.7640    0.5370 c3        1 MOL     -0.311990
     46 C16         1.7980   -1.0960    0.6830 c         1 MOL      0.609413
     47 O7          1.4060   -1.9100    1.5140 o         1 MOL     -0.686865
     48 O8          0.9480   -0.6320   -0.0700 o         1 MOL     -0.686865
     49 H21         5.7670   -0.8140    0.4720 hn        1 MOL      0.243452
     50 H22         3.8490   -2.8250    0.9370 h1        1 MOL      0.094309
     51 H23         3.4450    0.0300   -0.1900 hc        1 MOL      0.145586
     52 H24         3.8090   -0.3870    1.4340 hc        1 MOL      0.145586
     53 N5          2.7340   -3.6870   -1.0990 n         1 MOL     -0.314862
     54 C17         2.1290   -4.2660   -2.2980 c3        1 MOL     -0.061407
     55 C18         1.2340   -3.3850   -3.2240 c         1 MOL      0.531267
     56 O9          1.1830   -3.8080   -4.3770 o         1 MOL     -0.550793
     57 H25         2.6030   -4.1260   -0.2010 hn        1 MOL      0.226695
     58 H26         1.5600   -5.1240   -1.9310 h1        1 MOL      0.079489
     59 H27         2.9740   -4.5710   -2.9170 h1        1 MOL      0.079489
     60 N6          0.6080   -2.2760   -2.8070 n         1 MOL     -0.219977
     61 C19        -0.0960   -1.3320   -3.7010 c3        1 MOL      0.001300
     62 C20         0.2660    0.1210   -3.6550 c         1 MOL      0.385578
     63 O10        -0.4560    1.0040   -4.2080 o         1 MOL     -0.514819
     64 C21        -1.6180   -1.6490   -3.6180 c3        1 MOL     -0.082926
     65 C22        -2.2380   -0.9300   -2.3780 c         1 MOL      0.590034
     66 N7         -3.1570   -0.0530   -2.6000 n         1 MOL     -0.700867
     67 O11        -1.9430   -1.1900   -1.2260 o         1 MOL     -0.566381
     68 H28         0.7530   -1.8690   -1.8940 hn        1 MOL      0.023223
     69 H29         0.0560   -1.6780   -4.7200 h1        1 MOL      0.106583
     70 H30        -1.9510   -2.6830   -3.6380 hc        1 MOL      0.063674
     71 H31        -2.0280   -1.3170   -4.5750 hc        1 MOL      0.063674
     72 H32        -3.6190    0.0480   -3.4870 hn        1 MOL      0.328710
     73 H33        -3.4880    0.5720   -1.8710 hn        1 MOL      0.328710
     74 N8          1.4520    0.3730   -3.0710 n         1 MOL     -0.090388
     75 C23         2.0110    1.7110   -3.0680 c3        1 MOL     -0.372364
     76 C24         1.2470    2.5950   -2.1720 c         1 MOL      0.553476
     77 O12         1.2140    3.7460   -2.4510 o         1 MOL     -0.517158
     78 H34         2.0030   -0.4200   -2.7670 hn        1 MOL      0.149969
     79 H35         1.9320    2.0910   -4.0860 h1        1 MOL      0.170184
     80 H36         3.0350    1.6470   -2.7030 h1        1 MOL      0.170184
     81 N9          0.6930    2.1200   -1.0500 n         1 MOL     -0.356895
     82 C25        -0.1270    2.8770   -0.0980 c3        1 MOL      0.115570
     83 C26        -1.3830    2.1870    0.3170 c         1 MOL      0.325123
     84 O13        -1.3860    0.9850    0.5800 o         1 MOL     -0.400844
     85 C27         0.5610    3.2440    1.1960 c3        1 MOL     -0.086741
     86 C28         1.7040    4.1230    0.9890 ca        1 MOL     -0.053291
     87 C29         1.4770    5.4980    0.7030 ca        1 MOL     -0.102935
     88 C30         3.0320    3.6490    0.8530 ca        1 MOL     -0.102935
     89 C31         2.5170    6.3390    0.4070 ca        1 MOL     -0.237526
     90 C32         4.0830    4.5120    0.5560 ca        1 MOL     -0.237526
     91 C33         3.8300    5.8750    0.3130 ca        1 MOL      0.361635
     92 O14         4.7900    6.7890   -0.1160 oh        1 MOL     -0.552493
     93 H37         0.6840    1.1130   -0.9860 hn        1 MOL      0.311861
     94 H38        -0.4290    3.7930   -0.6180 h1        1 MOL      0.036012
     95 H39         0.9900    2.2740    1.4440 hc        1 MOL      0.042218
     96 H40        -0.0980    3.6370    1.9690 hc        1 MOL      0.042218
     97 H41         0.4800    5.9080    0.5860 ha        1 MOL      0.097593
     98 H42         3.2380    2.5990    0.9820 ha        1 MOL      0.097593
     99 H43         2.3540    7.3710    0.1470 ha        1 MOL      0.145745
    100 H44         5.0660    4.1000    0.4550 ha        1 MOL      0.145745
    101 H45         5.6610    6.4010   -0.2450 ho        1 MOL      0.416889
    102 N10        -2.4170    2.9420    0.5130 n         1 MOL     -0.249347
    103 C34        -3.7160    2.4470    0.8450 c3        1 MOL     -0.004049
    104 C35        -4.5120    2.2670   -0.3870 c         1 MOL      0.202846
    105 O15        -5.1030    1.2010   -0.5200 o         1 MOL     -0.338985
    106 C36        -4.3490    3.3500    1.9120 c3        1 MOL      0.195323
    107 C37        -3.4550    3.3640    3.1500 c3        1 MOL     -0.091542
    108 C38        -5.7970    2.9370    2.1960 c3        1 MOL     -0.468153
    109 C39        -3.3670    2.0750    4.0390 c3        1 MOL     -0.114312
    110 H46        -2.2330    3.9350    0.4070 hn        1 MOL      0.249810
    111 H47        -3.6180    1.4990    1.3760 h1        1 MOL      0.006779
    112 H48        -4.4570    4.3630    1.5200 hc        1 MOL     -0.039990
    113 H49        -3.9700    4.0840    3.7840 hc        1 MOL      0.036702
    114 H50        -2.4560    3.7480    2.9360 hc        1 MOL      0.036702
    115 H51        -6.3250    3.1520    1.2650 hc        1 MOL      0.132975
    116 H52        -5.9020    1.9050    2.5070 hc        1 MOL      0.132975
    117 H53        -6.1600    3.5580    3.0080 hc        1 MOL      0.132975
    118 H54        -2.8830    1.2740    3.4680 hc        1 MOL      0.043300
    119 H55        -2.9190    2.3150    4.9940 hc        1 MOL      0.043300
    120 H56        -4.3840    1.6990    4.1740 hc        1 MOL      0.043300
    121 N11        -4.6500    3.2470   -1.3040 n         1 MOL     -0.250181
    122 C40        -5.5720    3.2750   -2.4560 c3        1 MOL      0.168943
    123 C41        -6.8820    2.5500   -2.2390 c         1 MOL      0.138399
    124 O16        -7.2530    1.6690   -3.0010 o         1 MOL     -0.427002
    125 C42        -5.8080    4.7560   -2.8230 c3        1 MOL      0.193099
    126 O17        -4.6840    5.5870   -2.7050 oh        1 MOL     -0.594641
    127 H57        -4.0340    4.0500   -1.2870 hn        1 MOL      0.208242
    128 H58        -5.0770    2.8860   -3.3510 h1        1 MOL      0.086156
    129 H59        -6.6880    5.2260   -2.3740 h1        1 MOL     -0.000124
    130 H60        -6.1100    4.6980   -3.8730 h1        1 MOL     -0.000124
    131 H61        -5.0030    6.4850   -2.8140 ho        1 MOL      0.418946
    132 N12        -7.5890    2.9150   -1.1470 n         1 MOL     -0.049265
    133 C43        -8.8060    2.3320   -0.6420 c3        1 MOL      0.297753
    134 C44        -8.8850    0.8230   -0.7380 c         1 MOL      0.420017
    135 O18        -9.9040    0.3510   -1.1910 o         1 MOL     -0.523235
    136 C45        -9.9100    3.0290   -1.4080 c3        1 MOL     -0.357190
    137 H62        -7.3520    3.7800   -0.6680 hn        1 MOL      0.149062
    138 H63        -8.7300    2.5660    0.4160 h1        1 MOL     -0.024760
    139 H64        -9.7430    4.1090   -1.3740 hc        1 MOL      0.088631
    140 H65       -10.0150    2.8150   -2.4720 hc        1 MOL      0.088631
    141 H66       -10.8430    2.8820   -0.8690 hc        1 MOL      0.088631
    142 N13        -7.8710   -0.0120   -0.4170 n         1 MOL     -0.314560
    143 C46        -7.8580   -1.4600   -0.5430 c3        1 MOL      0.207911
    144 C47        -7.2310   -2.0650    0.6740 c         1 MOL      0.440075
    145 O19        -6.3350   -1.4780    1.2920 o         1 MOL     -0.420860
    146 C48        -7.1160   -1.8410   -1.8550 c3        1 MOL     -0.044507
    147 H67        -7.0510    0.3560    0.0580 hn        1 MOL      0.049059
    148 H68        -8.8770   -1.8490   -0.6010 h1        1 MOL      0.020941
    149 H69        -6.9830   -2.9300   -1.9090 hc        1 MOL      0.035388
    150 H70        -7.7260   -1.6070   -2.7270 hc        1 MOL      0.035388
    151 H71        -6.1390   -1.3680   -1.9740 hc        1 MOL      0.035388
    152 N14        -7.5540   -3.3250    0.8330 n         1 MOL     -0.626642
    153 C49        -6.8960   -4.1750    1.8800 c3        1 MOL      0.140093
    154 C50        -7.3170   -3.8660    3.3220 c         1 MOL      0.423646
    155 O20        -6.6050   -4.2780    4.2490 o         1 MOL     -0.505912
    156 C51        -5.4110   -4.4010    1.6960 c3        1 MOL     -0.045325
    157 C52        -4.9080   -4.8360    0.3660 c3        1 MOL      0.126555
    158 C53        -3.3610   -4.7980    0.3510 c         1 MOL      0.541086
    159 O21        -2.7480   -5.6410   -0.3970 o         1 MOL     -0.678034
    160 O22        -2.7450   -3.7990    0.7670 o         1 MOL     -0.678034
    161 H72        -8.3460   -3.7410    0.3760 hn        1 MOL      0.349609
    162 H73        -7.2800   -5.1930    1.7490 h1        1 MOL      0.041391
    163 H74        -5.2450   -5.1850    2.4420 hc        1 MOL      0.011758
    164 H75        -4.8860   -3.4940    2.0010 hc        1 MOL      0.011758
    165 H76        -5.2290   -4.1580   -0.4300 hc        1 MOL     -0.020505
    166 H77        -5.1990   -5.8490    0.0640 hc        1 MOL     -0.020505
    167 N15        -8.3750   -3.1380    3.6010 n         1 MOL     -0.356905
    168 C54        -8.6250   -2.4000    4.8870 c3        1 MOL     -0.008523
    169 H78        -9.5810   -2.7160    5.3070 h1        1 MOL      0.064098
    170 H79        -7.8270   -2.6220    5.5950 h1        1 MOL      0.064098
    171 H80        -8.6510   -1.3280    4.6920 h1        1 MOL      0.064098
    172 H81        -9.0190   -2.9700    2.8430 hn        1 MOL      0.250830
    173 Ca1        -1.1360   -1.8880    1.0610 Ca        1 MOL      1.738918
    174 O23        -3.6780   -0.9220    1.2410 oh        1 MOL     -0.825119
    175 O24        -0.7790   -3.8490    2.9950 oh        1 MOL     -0.825119
    176 H82        -4.5860   -1.1700    1.4460 ho        1 MOL      0.408058
    177 H83        -0.0940   -4.0880    3.6250 ho        1 MOL      0.408058
    178 H84        -3.7540   -0.0730    0.8070 ho        1 MOL      0.408058
    179 H85        -1.2850   -4.6590    2.8760 ho        1 MOL      0.408058
    180 O25        -0.4310   -0.5260    3.3840 oh        1 MOL     -0.825119
    181 H86        -0.1150   -0.7750    4.2510 ho        1 MOL      0.408058
    182 H87        -0.2100    0.3950    3.2950 ho        1 MOL      0.408058
    183 O26        -0.3390   -4.0880   -0.2690 oh        1 MOL     -0.825119
    184 H88         0.3040   -4.6160    0.2100 ho        1 MOL      0.408058
    185 H89        -1.1270   -4.6370   -0.2990 ho        1 MOL      0.408058
@<TRIPOS>BOND
     1    1    2 1   
     2    1    4 1   
     3    1    5 1   
     4    1    6 1   
     5    2    3 2   
     6    2    7 1   
     7    7    8 1   
     8    7   15 1   
     9    8    9 1   
    10    8   11 1   
    11    8   16 1   
    12    9   10 2   
    13    9   19 1   
    14   11   12 1   
    15   11   17 1   
    16   11   18 1   
    17   12   13 1   
    18   12   14 1   
    19   19   20 1   
    20   19   28 1   
    21   20   21 1   
    22   20   23 1   
    23   20   29 1   
    24   21   22 2   
    25   21   41 1   
    26   23   24 1   
    27   23   30 1   
    28   23   31 1   
    29   24   25 1   
    30   24   32 1   
    31   24   33 1   
    32   25   26 1   
    33   25   34 1   
    34   25   35 1   
    35   26   27 1   
    36   26   36 1   
    37   26   37 1   
    38   27   38 1   
    39   27   39 1   
    40   27   40 1   
    41   41   42 1   
    42   41   49 1   
    43   42   43 1   
    44   42   45 1   
    45   42   50 1   
    46   43   44 2   
    47   43   53 1   
    48   45   46 1   
    49   45   51 1   
    50   45   52 1   
    51   46   47 1   
    52   46   48 1   
    53   53   54 1   
    54   53   57 1   
    55   54   55 1   
    56   54   58 1   
    57   54   59 1   
    58   55   56 2   
    59   55   60 1   
    60   60   61 1   
    61   60   68 1   
    62   61   62 1   
    63   61   64 1   
    64   61   69 1   
    65   62   63 2   
    66   62   74 1   
    67   64   65 1   
    68   64   70 1   
    69   64   71 1   
    70   65   66 1   
    71   65   67 2   
    72   66   72 1   
    73   66   73 1   
    74   74   75 1   
    75   74   78 1   
    76   75   76 1   
    77   75   79 1   
    78   75   80 1   
    79   76   77 2   
    80   76   81 1   
    81   81   82 1   
    82   81   93 1   
    83   82   83 1   
    84   82   85 1   
    85   82   94 1   
    86   83   84 2   
    87   83  102 1   
    88   85   86 1   
    89   85   95 1   
    90   85   96 1   
    91   86   87 ar  
    92   86   88 ar  
    93   87   89 ar  
    94   87   97 1   
    95   88   90 ar  
    96   88   98 1   
    97   89   91 ar  
    98   89   99 1   
    99   90   91 ar  
   100   90  100 1   
   101   91   92 1   
   102   92  101 1   
   103  102  103 1   
   104  102  110 1   
   105  103  104 1   
   106  103  106 1   
   107  103  111 1   
   108  104  105 2   
   109  104  121 1   
   110  106  107 1   
   111  106  108 1   
   112  106  112 1   
   113  107  109 1   
   114  107  113 1   
   115  107  114 1   
   116  108  115 1   
   117  108  116 1   
   118  108  117 1   
   119  109  118 1   
   120  109  119 1   
   121  109  120 1   
   122  121  122 1   
   123  121  127 1   
   124  122  123 1   
   125  122  125 1   
   126  122  128 1   
   127  123  124 2   
   128  123  132 1   
   129  125  126 1   
   130  125  129 1   
   131  125  130 1   
   132  126  131 1   
   133  132  133 1   
   134  132  137 1   
   135  133  134 1   
   136  133  136 1   
   137  133  138 1   
   138  134  135 2   
   139  134  142 1   
   140  136  139 1   
   141  136  140 1   
   142  136  141 1   
   143  142  143 1   
   144  142  147 1   
   145  143  144 1   
   146  143  146 1   
   147  143  148 1   
   148  144  145 2   
   149  144  152 1   
   150  146  149 1   
   151  146  150 1   
   152  146  151 1   
   153  152  153 1   
   154  152  161 1   
   155  153  154 1   
   156  153  156 1   
   157  153  162 1   
   158  154  155 2   
   159  154  167 1   
   160  156  157 1   
   161  156  163 1   
   162  156  164 1   
   163  157  158 1   
   164  157  165 1   
   165  157  166 1   
   166  158  159 1   
   167  158  160 1   
   168  167  168 1   
   169  167  172 1   
   170  168  169 1   
   171  168  170 1   
   172  168  171 1   
   173  174  176 1   
   174  174  178 1   
   175  175  177 1   
   176  175  179 1   
   177  180  181 1   
   178  180  182 1   
   179  183  184 1   
   180  183  185 1   
@<TRIPOS>SUBSTRUCTURE
     1 MOL         1 TEMP              0 ****  ****    0 ROOT
