@<TRIPOS>MOLECULE
MOL
  186   183     1     0     0
SMALL
resp


@<TRIPOS>ATOM
      1 C1         -3.9680   -3.8850   -4.0790 c3        1 MOL     -0.377467
      2 C2         -4.7280   -3.2540   -2.9470 c         1 MOL      0.829305
      3 O1         -4.3010   -3.2010   -1.7550 o         1 MOL     -0.691578
      4 H1         -4.3140   -4.9090   -4.2210 hc        1 MOL      0.099096
      5 H2         -4.1370   -3.3150   -4.9930 hc        1 MOL      0.099096
      6 H3         -2.9040   -3.8910   -3.8440 hc        1 MOL      0.099096
      7 N1         -5.9360   -2.7540   -3.2300 n         1 MOL     -0.669081
      8 C3         -6.7090   -1.7760   -2.4430 c3        1 MOL      0.347055
      9 C4         -5.8200   -0.6560   -1.9500 c         1 MOL      0.168813
     10 O2         -5.3410   -0.6370   -0.7980 o         1 MOL     -0.281336
     11 C5         -7.6680   -2.3330   -1.3760 c3        1 MOL     -0.349344
     12 C6         -7.1050   -3.4300   -0.4320 c         1 MOL      0.768401
     13 O3         -6.2430   -3.0990    0.3970 o         1 MOL     -0.706338
     14 O4         -7.6580   -4.5460   -0.3400 o         1 MOL     -0.706338
     15 H4         -6.3290   -2.8850   -4.1540 hn        1 MOL      0.311099
     16 H5         -7.2960   -1.2530   -3.1900 h1        1 MOL     -0.008529
     17 H6         -8.4910   -2.8420   -1.8860 hc        1 MOL      0.067833
     18 H7         -8.1120   -1.5290   -0.7770 hc        1 MOL      0.067833
     19 N2         -5.5780    0.2800   -2.8620 n         1 MOL     -0.422381
     20 C7         -4.9980    1.6190   -2.6550 c3        1 MOL      0.066634
     21 C8         -5.5990    2.5650   -1.6080 c         1 MOL      0.297555
     22 O5         -5.6920    3.8030   -1.8010 o         1 MOL     -0.530392
     23 C9         -3.4780    1.4910   -2.5120 c3        1 MOL      0.256249
     24 C10        -2.7930    2.8820   -2.7650 c3        1 MOL     -0.150228
     25 C11        -2.8650    0.5410   -3.6390 c3        1 MOL     -0.010947
     26 C12        -3.0870    3.6950   -4.0800 c3        1 MOL     -0.215840
     27 H8         -5.8310    0.0170   -3.7980 hn        1 MOL      0.278416
     28 H9         -5.1620    2.1030   -3.6200 h1        1 MOL      0.067546
     29 H10        -3.0770    1.0440   -1.6020 hc        1 MOL     -0.087511
     30 H11        -1.7080    2.8120   -2.7730 hc        1 MOL      0.108352
     31 H12        -3.0770    3.5990   -1.9930 hc        1 MOL      0.108352
     32 H13        -2.9350   -0.5140   -3.3590 hc        1 MOL     -0.027751
     33 H14        -3.3180    0.6590   -4.6200 hc        1 MOL     -0.027751
     34 H15        -1.8450    0.8900   -3.7750 hc        1 MOL     -0.027751
     35 H16        -3.1460    3.0950   -4.9820 hc        1 MOL      0.038180
     36 H17        -4.0640    4.1710   -4.0020 hc        1 MOL      0.038180
     37 H18        -2.3080    4.4590   -4.1620 hc        1 MOL      0.038180
     38 N3         -6.0390    2.0100   -0.4940 n         1 MOL     -0.034552
     39 C13        -7.1190    2.5780    0.3380 c3        1 MOL     -0.004093
     40 C14        -6.7420    3.7780    1.2540 c         1 MOL      0.621432
     41 O6         -7.3940    4.7990    1.2460 o         1 MOL     -0.576641
     42 C15        -7.5810    1.4490    1.1830 c3        1 MOL     -0.134005
     43 C16        -8.6150    1.8130    2.1830 c         1 MOL      0.730445
     44 O7         -8.5390    1.2030    3.2790 o         1 MOL     -0.741506
     45 O8         -9.5070    2.5960    1.8710 o         1 MOL     -0.741506
     46 H19        -5.6900    1.0750   -0.3150 hn        1 MOL      0.142114
     47 H20        -7.9640    2.8660   -0.3000 h1        1 MOL      0.036165
     48 H21        -6.7030    1.1010    1.7300 hc        1 MOL      0.025932
     49 H22        -7.9160    0.5820    0.6140 hc        1 MOL      0.025932
     50 N4         -5.6250    3.8130    1.9560 n         1 MOL     -0.539514
     51 C17        -4.5000    2.8500    2.0050 c3        1 MOL      0.164098
     52 C18        -3.2870    3.3260    2.9080 c         1 MOL      0.502251
     53 O9         -3.2560    4.4880    3.3390 o         1 MOL     -0.557291
     54 H23        -5.6040    4.5780    2.6240 hn        1 MOL      0.297308
     55 H24        -4.0790    2.6560    1.0190 h1        1 MOL      0.019782
     56 H25        -4.9040    1.9190    2.4050 h1        1 MOL      0.019782
     57 N5         -2.3240    2.4530    3.2850 n         1 MOL     -0.489312
     58 C19        -2.2030    0.9870    3.0370 c3        1 MOL      0.137898
     59 C20        -2.3200    0.6330    1.5240 c         1 MOL      0.288251
     60 O10        -3.3630    0.1540    1.0980 o         1 MOL     -0.710610
     61 C21        -3.1290    0.2430    3.9700 c3        1 MOL     -0.177457
     62 C22        -2.8540   -1.2660    4.1310 c         1 MOL      0.660094
     63 O11        -2.8130   -1.7270    5.2870 o         1 MOL     -0.670296
     64 O12        -2.6600   -1.9350    3.0930 o         1 MOL     -0.670296
     65 H26        -1.6270    2.9600    3.8290 hn        1 MOL      0.274037
     66 H27        -1.2050    0.6930    3.3650 h1        1 MOL      0.105146
     67 H28        -4.2030    0.3710    3.8530 hc        1 MOL      0.055703
     68 H29        -2.9060    0.6510    4.9580 hc        1 MOL      0.055703
     69 N6         -1.3380    0.9640    0.6330 n         1 MOL     -0.074913
     70 C23        -0.0090    1.4550    0.8940 c3        1 MOL     -0.145774
     71 C24         0.3930    2.7950    0.1140 c         1 MOL      0.309509
     72 O13        -0.2080    3.2460   -0.8550 o         1 MOL     -0.464040
     73 H30        -1.5250    0.7950   -0.3420 hn        1 MOL      0.243585
     74 H31         0.7120    0.6650    0.6680 h1        1 MOL      0.075042
     75 H32         0.1760    1.6000    1.9580 h1        1 MOL      0.075042
     76 N7          1.5090    3.3970    0.5290 n         1 MOL     -0.134540
     77 C25         2.1110    4.4760   -0.1860 c3        1 MOL     -0.121857
     78 C26         2.5710    4.1910   -1.6330 c         1 MOL      0.314570
     79 O14         2.8330    5.1480   -2.3860 o         1 MOL     -0.495500
     80 C27         3.1990    5.0270    0.8040 c3        1 MOL     -0.062731
     81 C28         2.6930    5.8380    1.9660 c3        1 MOL     -0.112575
     82 C29         2.4690    7.3370    1.7420 c         1 MOL      0.731084
     83 N8          2.3420    8.0630    2.8480 n         1 MOL     -0.851703
     84 O15         2.3680    7.8210    0.6370 o         1 MOL     -0.547546
     85 H33         1.9260    3.1750    1.4190 hn        1 MOL      0.216821
     86 H34         1.3820    5.2470   -0.4230 h1        1 MOL      0.183675
     87 H35         3.9650    5.6660    0.3590 hc        1 MOL      0.047182
     88 H36         3.7150    4.1560    1.2060 hc        1 MOL      0.047182
     89 H37         3.4190    5.6320    2.7450 hc        1 MOL      0.015435
     90 H38         1.7130    5.4480    2.2270 hc        1 MOL      0.015435
     91 H39         2.2230    7.6340    3.7530 hn        1 MOL      0.368054
     92 H40         2.3350    9.0600    2.7380 hn        1 MOL      0.368054
     93 N9          2.6330    2.9270   -2.0440 n         1 MOL      0.009015
     94 C30         3.2110    2.4600   -3.3630 c3        1 MOL     -0.106619
     95 C31         4.6390    1.9300   -3.1130 c         1 MOL      0.615518
     96 O16         5.4080    1.9350   -4.0790 o         1 MOL     -0.585895
     97 C32         2.3000    1.4290   -4.0550 c3        1 MOL      0.132136
     98 C33         1.1140    2.2230   -4.6990 c3        1 MOL     -0.298916
     99 C34         1.9860    0.3590   -2.9970 c3        1 MOL     -0.298916
    100 H41         2.4850    2.2530   -1.3120 hn        1 MOL      0.002106
    101 H42         3.4010    3.3020   -4.0310 h1        1 MOL      0.088962
    102 H43         2.9060    0.9680   -4.8410 hc        1 MOL      0.017224
    103 H44         0.5600    2.7950   -3.9580 hc        1 MOL      0.091248
    104 H45         1.4570    2.9630   -5.4230 hc        1 MOL      0.091248
    105 H46         0.5070    1.5510   -5.3110 hc        1 MOL      0.091248
    106 H47         1.2970    0.7940   -2.2680 hc        1 MOL      0.091248
    107 H48         1.2960   -0.3930   -3.3930 hc        1 MOL      0.091248
    108 H49         2.8100   -0.1140   -2.4530 hc        1 MOL      0.091248
    109 N10         5.0460    1.4320   -1.9670 n         1 MOL     -0.554827
    110 C35         6.4300    1.0320   -1.7060 c3        1 MOL      0.240210
    111 C36         6.5300   -0.4030   -1.0110 c         1 MOL      0.512463
    112 O17         7.4090   -1.1170   -1.3750 o         1 MOL     -0.538507
    113 C37         7.1680    2.1210   -0.8970 c3        1 MOL     -0.359845
    114 C38         7.2070    3.4260   -1.5520 c         1 MOL      0.778141
    115 N11         7.7480    3.5540   -2.7040 n         1 MOL     -0.854972
    116 O18         6.8590    4.4210   -0.9690 o         1 MOL     -0.601430
    117 H50         4.3230    1.4720   -1.2640 hn        1 MOL      0.304419
    118 H51         6.9810    0.8860   -2.6280 h1        1 MOL      0.028395
    119 H52         8.2150    1.8680   -0.7370 hc        1 MOL      0.101606
    120 H53         6.7270    2.2590    0.0890 hc        1 MOL      0.101606
    121 H54         7.8910    2.7370   -3.2770 hn        1 MOL      0.387164
    122 H55         7.7940    4.4810   -3.0950 hn        1 MOL      0.387164
    123 N12         5.7530   -0.7370    0.0180 n         1 MOL     -0.418007
    124 C39         5.7490   -2.0510    0.6230 c3        1 MOL      0.326932
    125 C40         4.4830   -2.8270    0.7240 c         1 MOL      0.250197
    126 O19         3.4140   -2.2660    0.8790 o         1 MOL     -0.404210
    127 C41         6.4450   -1.9110    1.9790 c3        1 MOL     -0.112830
    128 C42         7.5570   -0.8820    2.0680 ca        1 MOL     -0.048602
    129 C43         7.1920    0.3900    2.5450 ca        1 MOL     -0.104588
    130 C44         8.8550   -1.1890    1.6960 ca        1 MOL     -0.104588
    131 C45         8.1120    1.4300    2.5140 ca        1 MOL     -0.322804
    132 C46         9.8080   -0.0900    1.6590 ca        1 MOL     -0.322804
    133 C47         9.4540    1.1730    2.0700 ca        1 MOL      0.377583
    134 O20        10.3990    2.0800    2.0680 oh        1 MOL     -0.487648
    135 H56         5.0190   -0.1110    0.3150 hn        1 MOL      0.224033
    136 H57         6.4800   -2.6130    0.0350 h1        1 MOL     -0.015273
    137 H58         6.9790   -2.8140    2.2660 hc        1 MOL      0.078179
    138 H59         5.6820   -1.6750    2.7160 hc        1 MOL      0.078179
    139 H60         6.1850    0.6000    2.8730 ha        1 MOL      0.139819
    140 H61         9.2030   -2.1640    1.4010 ha        1 MOL      0.139819
    141 H62         7.7030    2.3980    2.7590 ha        1 MOL      0.148431
    142 H63        10.8400   -0.3140    1.4320 ha        1 MOL      0.148431
    143 H64         9.9160    2.8670    2.3110 ho        1 MOL      0.360603
    144 N13         4.6550   -4.1410    0.8120 n         1 MOL     -0.461986
    145 C48         3.5500   -5.1140    1.1280 c3        1 MOL     -0.051115
    146 C49         2.3800   -5.2210    0.1000 c         1 MOL      0.238663
    147 O21         1.4870   -6.0540    0.2310 o         1 MOL     -0.474084
    148 C50         2.9380   -4.9150    2.5660 c3        1 MOL      0.191972
    149 C51         4.0010   -4.6460    3.5850 c3        1 MOL     -0.489538
    150 C52         3.6440   -4.9440    4.9810 c         1 MOL      0.804228
    151 O22         3.0600   -4.1840    5.7920 o         1 MOL     -0.738647
    152 O23         3.9640   -6.0750    5.3900 o         1 MOL     -0.738647
    153 H65         5.5910   -4.4790    0.6530 hn        1 MOL      0.309624
    154 H66         4.0140   -6.1050    1.1500 h1        1 MOL      0.097871
    155 H67         2.2520   -5.7210    2.8340 hc        1 MOL      0.058668
    156 H68         2.3130   -4.0300    2.4350 hc        1 MOL      0.058668
    157 H69         4.2690   -3.6010    3.4410 hc        1 MOL      0.067189
    158 H70         4.9410   -5.1580    3.3590 hc        1 MOL      0.067189
    159 N14         2.3550   -4.3810   -0.9040 n         1 MOL     -0.021740
    160 C53         1.2730   -4.3480   -1.9010 c3        1 MOL     -0.292348
    161 C54         1.6880   -5.1460   -3.1690 c         1 MOL      0.526848
    162 O24         0.8590   -5.7170   -3.8610 o         1 MOL     -0.518301
    163 C55         0.8560   -2.8870   -2.1850 c3        1 MOL      0.016586
    164 C56         0.4570   -1.9180   -1.0660 c3        1 MOL      0.582565
    165 C57        -0.7440   -2.3880   -0.2150 c         1 MOL      0.370559
    166 O25        -0.6420   -3.2130    0.7040 o         1 MOL     -0.604639
    167 O26        -1.8240   -1.8050   -0.4920 o         1 MOL     -0.604639
    168 H71         3.0750   -3.6850   -1.0060 hn        1 MOL      0.181606
    169 H72         0.4160   -4.8800   -1.5030 h1        1 MOL      0.208350
    170 H73         0.0160   -2.8900   -2.8730 hc        1 MOL     -0.039610
    171 H74         1.6730   -2.3810   -2.7000 hc        1 MOL     -0.039610
    172 H75         0.1570   -1.0010   -1.5800 hc        1 MOL     -0.179512
    173 H76         1.3120   -1.6960   -0.4220 hc        1 MOL     -0.179512
    174 N15         3.0230   -5.4000   -3.4380 n         1 MOL     -0.303455
    175 C58         3.5150   -6.1470   -4.6020 c3        1 MOL     -0.111997
    176 H77         2.6800   -6.6460   -5.0930 h1        1 MOL      0.066993
    177 H78         3.9900   -5.4600   -5.3020 h1        1 MOL      0.066993
    178 H79         4.2410   -6.8930   -4.2750 h1        1 MOL      0.066993
    179 H80         3.7020   -5.2310   -2.7170 hn        1 MOL      0.192132
    180 Ca1        -3.8980   -2.2970    0.8620 Ca        1 MOL      1.796785
    181 O27        -3.8460   -5.0060    1.4920 oh        1 MOL     -0.936492
    182 H81        -3.0440   -5.4990    1.6300 ho        1 MOL      0.447036
    183 H82        -4.4850   -5.6450    1.2060 ho        1 MOL      0.447036
    184 O28        -5.7970   -1.2310    2.6170 oh        1 MOL     -0.936492
    185 H83        -6.1190   -0.8680    3.4450 ho        1 MOL      0.447036
    186 H84        -6.5910   -1.3210    2.0800 ho        1 MOL      0.447036
@<TRIPOS>BOND
     1    1    2 1   
     2    1    4 1   
     3    1    5 1   
     4    1    6 1   
     5    2    3 2   
     6    2    7 1   
     7    7    8 1   
     8    7   15 1   
     9    8    9 1   
    10    8   11 1   
    11    8   16 1   
    12    9   10 2   
    13    9   19 1   
    14   11   12 1   
    15   11   17 1   
    16   11   18 1   
    17   12   13 1   
    18   12   14 1   
    19   19   20 1   
    20   19   27 1   
    21   20   21 1   
    22   20   23 1   
    23   20   28 1   
    24   21   22 2   
    25   21   38 1   
    26   23   24 1   
    27   23   25 1   
    28   23   29 1   
    29   24   26 1   
    30   24   30 1   
    31   24   31 1   
    32   25   32 1   
    33   25   33 1   
    34   25   34 1   
    35   26   35 1   
    36   26   36 1   
    37   26   37 1   
    38   38   39 1   
    39   38   46 1   
    40   39   40 1   
    41   39   42 1   
    42   39   47 1   
    43   40   41 2   
    44   40   50 1   
    45   42   43 1   
    46   42   48 1   
    47   42   49 1   
    48   43   44 1   
    49   43   45 1   
    50   50   51 1   
    51   50   54 1   
    52   51   52 1   
    53   51   55 1   
    54   51   56 1   
    55   52   53 2   
    56   52   57 1   
    57   57   58 1   
    58   57   65 1   
    59   58   59 1   
    60   58   61 1   
    61   58   66 1   
    62   59   60 2   
    63   59   69 1   
    64   61   62 1   
    65   61   67 1   
    66   61   68 1   
    67   62   63 1   
    68   62   64 1   
    69   69   70 1   
    70   69   73 1   
    71   70   71 1   
    72   70   74 1   
    73   70   75 1   
    74   71   72 2   
    75   71   76 1   
    76   76   77 1   
    77   76   85 1   
    78   77   78 1   
    79   77   80 1   
    80   77   86 1   
    81   78   79 2   
    82   78   93 1   
    83   80   81 1   
    84   80   87 1   
    85   80   88 1   
    86   81   82 1   
    87   81   89 1   
    88   81   90 1   
    89   82   83 1   
    90   82   84 2   
    91   83   91 1   
    92   83   92 1   
    93   93   94 1   
    94   93  100 1   
    95   94   95 1   
    96   94   97 1   
    97   94  101 1   
    98   95   96 2   
    99   95  109 1   
   100   97   98 1   
   101   97   99 1   
   102   97  102 1   
   103   98  103 1   
   104   98  104 1   
   105   98  105 1   
   106   99  106 1   
   107   99  107 1   
   108   99  108 1   
   109  109  110 1   
   110  109  117 1   
   111  110  111 1   
   112  110  113 1   
   113  110  118 1   
   114  111  112 2   
   115  111  123 1   
   116  113  114 1   
   117  113  119 1   
   118  113  120 1   
   119  114  115 1   
   120  114  116 2   
   121  115  121 1   
   122  115  122 1   
   123  123  124 1   
   124  123  135 1   
   125  124  125 1   
   126  124  127 1   
   127  124  136 1   
   128  125  126 2   
   129  125  144 1   
   130  127  128 1   
   131  127  137 1   
   132  127  138 1   
   133  128  129 ar  
   134  128  130 ar  
   135  129  131 ar  
   136  129  139 1   
   137  130  132 ar  
   138  130  140 1   
   139  131  133 ar  
   140  131  141 1   
   141  132  133 ar  
   142  132  142 1   
   143  133  134 1   
   144  134  143 1   
   145  144  145 1   
   146  144  153 1   
   147  145  146 1   
   148  145  148 1   
   149  145  154 1   
   150  146  147 2   
   151  146  159 1   
   152  148  149 1   
   153  148  155 1   
   154  148  156 1   
   155  149  150 1   
   156  149  157 1   
   157  149  158 1   
   158  150  151 1   
   159  150  152 1   
   160  159  160 1   
   161  159  168 1   
   162  160  161 1   
   163  160  163 1   
   164  160  169 1   
   165  161  162 2   
   166  161  174 1   
   167  163  164 1   
   168  163  170 1   
   169  163  171 1   
   170  164  165 1   
   171  164  172 1   
   172  164  173 1   
   173  165  166 1   
   174  165  167 1   
   175  174  175 1   
   176  174  179 1   
   177  175  176 1   
   178  175  177 1   
   179  175  178 1   
   180  181  182 1   
   181  181  183 1   
   182  184  185 1   
   183  184  186 1   
@<TRIPOS>SUBSTRUCTURE
     1 MOL         1 TEMP              0 ****  ****    0 ROOT
