@<TRIPOS>MOLECULE
MOL
  185   180     1     0     0
SMALL
resp


@<TRIPOS>ATOM
      1 C1          3.5440   -6.6630    3.9060 c3        1 MOL     -0.448959
      2 C2          2.9480   -5.7100    2.9460 c         1 MOL      0.833484
      3 O1          1.8900   -5.9420    2.3910 o         1 MOL     -0.655697
      4 H1          4.0170   -7.4800    3.3610 hc        1 MOL      0.118358
      5 H2          4.2910   -6.1500    4.5120 hc        1 MOL      0.118358
      6 H3          2.7640   -7.0630    4.5540 hc        1 MOL      0.118358
      7 N1          3.6640   -4.6440    2.6680 n         1 MOL     -0.707008
      8 C3          3.3250   -3.7020    1.6420 c3        1 MOL      0.188567
      9 C4          3.5920   -4.3340    0.2010 c         1 MOL      0.595123
     10 O2          4.6970   -4.8970   -0.0630 o         1 MOL     -0.536121
     11 C5          4.0420   -2.4020    1.9800 c3        1 MOL      0.254032
     12 C6          3.6370   -1.2310    1.1160 c         1 MOL      0.289536
     13 O3          3.6500   -0.0900    1.6340 o         1 MOL     -0.644977
     14 O4          3.2840   -1.4590   -0.0570 o         1 MOL     -0.644977
     15 H4          4.4950   -4.4490    3.2010 hn        1 MOL      0.331850
     16 H5          2.2490   -3.5720    1.7010 h1        1 MOL     -0.021142
     17 H6          5.1090   -2.6000    1.9300 hc        1 MOL     -0.036374
     18 H7          3.8170   -2.2580    3.0400 hc        1 MOL     -0.036374
     19 N2          2.6040   -4.2950   -0.7220 n         1 MOL     -0.495331
     20 C7          2.8090   -4.7520   -2.1300 c3        1 MOL     -0.018982
     21 C8          3.8850   -3.9730   -2.8670 c         1 MOL      0.421429
     22 O5          4.6310   -4.5740   -3.7140 o         1 MOL     -0.547496
     23 C9          1.4600   -4.6260   -2.8630 c3        1 MOL     -0.044727
     24 C10         0.3710   -5.5810   -2.2270 c3        1 MOL     -0.036550
     25 C11        -0.9250   -5.6410   -3.1260 c3        1 MOL     -0.172422
     26 C12        -2.0030   -6.5800   -2.5930 c3        1 MOL      0.157599
     27 N3         -3.2630   -6.6390   -3.3110 n4        1 MOL     -0.372825
     28 H8          1.7990   -3.7260   -0.5260 hn        1 MOL      0.327503
     29 H9          3.0960   -5.8060   -2.1460 h1        1 MOL      0.134839
     30 H10         1.5940   -4.9820   -3.8770 hc        1 MOL      0.036283
     31 H11         1.0750   -3.5940   -2.8700 hc        1 MOL      0.036283
     32 H12         0.1670   -5.2150   -1.2270 hc        1 MOL      0.048728
     33 H13         0.9000   -6.5320   -2.2400 hc        1 MOL      0.048728
     34 H14        -0.5730   -6.0140   -4.0970 hc        1 MOL      0.066972
     35 H15        -1.4070   -4.6700   -3.2030 hc        1 MOL      0.066972
     36 H16        -2.1610   -6.3270   -1.5430 hx        1 MOL      0.055378
     37 H17        -1.5410   -7.5700   -2.5410 hx        1 MOL      0.055378
     38 H18        -3.1020   -7.1280   -4.1850 hn        1 MOL      0.305575
     39 H19        -3.9840   -7.1760   -2.8520 hn        1 MOL      0.305575
     40 H20        -3.6370   -5.7200   -3.4840 hn        1 MOL      0.305575
     41 N4          4.1550   -2.7030   -2.5310 n         1 MOL     -0.192615
     42 C13         5.2300   -1.8930   -3.2080 c3        1 MOL     -0.035896
     43 C14         6.2710   -1.2400   -2.2330 c         1 MOL      0.373659
     44 O6          7.2610   -0.6100   -2.6440 o         1 MOL     -0.536802
     45 C15         4.5940   -0.8330   -4.1780 c3        1 MOL     -0.256045
     46 C16         3.6550    0.1820   -3.6300 c         1 MOL      0.694626
     47 O7          3.0510    0.9830   -4.4570 o         1 MOL     -0.697960
     48 O8          3.5300    0.3050   -2.4100 o         1 MOL     -0.697960
     49 H21         3.6260   -2.2070   -1.8230 hn        1 MOL      0.216278
     50 H22         5.7600   -2.6180   -3.8320 h1        1 MOL      0.138616
     51 H23         4.1580   -1.3960   -5.0150 hc        1 MOL      0.093105
     52 H24         5.4080   -0.3010   -4.6630 hc        1 MOL      0.093105
     53 N5          6.0340   -1.2770   -0.9380 n         1 MOL      0.027829
     54 C17         6.8730   -0.6710    0.0960 c3        1 MOL     -0.433759
     55 C18         6.7840    0.8330    0.1200 c         1 MOL      0.714823
     56 O9          7.4350    1.4430    0.9150 o         1 MOL     -0.585877
     57 H25         5.2260   -1.7710   -0.6020 hn        1 MOL      0.018402
     58 H26         7.9140   -0.9550   -0.0560 h1        1 MOL      0.179896
     59 H27         6.5580   -1.0620    1.0640 h1        1 MOL      0.179896
     60 N6          6.0550    1.4610   -0.8290 n         1 MOL     -0.399393
     61 C19         5.9830    2.9120   -1.0500 c3        1 MOL      0.180726
     62 C20         4.6080    3.4530   -0.6120 c         1 MOL      0.388976
     63 O10         3.6320    2.7070   -0.5940 o         1 MOL     -0.501586
     64 C21         6.0610    3.0830   -2.5730 c3        1 MOL     -0.276922
     65 C22         6.0850    4.5600   -3.0550 c         1 MOL      0.633159
     66 N7          7.1700    5.2160   -2.8240 n         1 MOL     -0.778864
     67 O11         5.1040    5.1140   -3.5840 o         1 MOL     -0.564985
     68 H28         5.4620    0.9210   -1.4520 hn        1 MOL      0.217342
     69 H29         6.7150    3.5310   -0.5290 h1        1 MOL      0.015342
     70 H30         5.2450    2.5800   -3.0820 hc        1 MOL      0.123417
     71 H31         7.0070    2.6260   -2.8810 hc        1 MOL      0.123417
     72 H32         7.9130    4.7730   -2.3130 hn        1 MOL      0.367383
     73 H33         7.3440    6.1120   -3.2520 hn        1 MOL      0.367383
     74 N8          4.3770    4.7780   -0.4570 n         1 MOL     -0.262072
     75 C23         3.0970    5.4490   -0.3860 c3        1 MOL     -0.115161
     76 C24         2.2550    5.1490    0.8800 c         1 MOL      0.505673
     77 O12         2.7910    5.2200    2.0150 o         1 MOL     -0.507370
     78 H34         5.1690    5.4040   -0.3550 hn        1 MOL      0.257947
     79 H35         2.4720    5.3090   -1.2670 h1        1 MOL      0.094683
     80 H36         3.2870    6.5270   -0.4250 h1        1 MOL      0.094683
     81 N9          0.9790    4.9030    0.6680 n         1 MOL     -0.427263
     82 C25         0.1000    4.3200    1.6630 c3        1 MOL      0.098003
     83 C26         0.6570    2.9870    2.1970 c         1 MOL      0.495980
     84 O13         1.5340    2.3830    1.6040 o         1 MOL     -0.458167
     85 C27        -1.3080    4.2080    1.0920 c3        1 MOL     -0.222971
     86 C28        -2.0660    5.4740    0.7730 ca        1 MOL      0.045577
     87 C29        -1.9690    6.0400   -0.5090 ca        1 MOL     -0.112762
     88 C30        -2.9710    6.0100    1.6690 ca        1 MOL     -0.112762
     89 C31        -2.6870    7.2800   -0.7930 ca        1 MOL     -0.311029
     90 C32        -3.6410    7.2430    1.4270 ca        1 MOL     -0.311029
     91 C33        -3.5860    7.8670    0.1510 ca        1 MOL      0.394722
     92 O14        -4.3830    8.8600   -0.1910 oh        1 MOL     -0.477468
     93 H37         0.6300    5.1030   -0.2580 hn        1 MOL      0.268022
     94 H38         0.0340    4.9740    2.5350 h1        1 MOL      0.061108
     95 H39        -1.8780    3.6060    1.8040 hc        1 MOL      0.095187
     96 H40        -1.3160    3.6350    0.1630 hc        1 MOL      0.095187
     97 H41        -1.3710    5.6230   -1.3040 ha        1 MOL      0.120209
     98 H42        -3.1030    5.5030    2.6100 ha        1 MOL      0.120209
     99 H43        -2.6750    7.7290   -1.7760 ha        1 MOL      0.155622
    100 H44        -4.1810    7.7490    2.2220 ha        1 MOL      0.155622
    101 H45        -4.9420    9.2360    0.4930 ho        1 MOL      0.387196
    102 N10         0.1350    2.4220    3.3230 n         1 MOL     -0.558733
    103 C34         0.3980    1.0630    3.9370 c3        1 MOL      0.197503
    104 C35         0.3300   -0.1600    3.0150 c         1 MOL      0.040892
    105 O15         0.8110   -0.0700    1.8360 o         1 MOL     -0.202271
    106 C36         1.8030    1.0420    4.5490 c3        1 MOL      0.236350
    107 C37         2.0030   -0.1880    5.5520 c3        1 MOL     -0.148754
    108 C38         2.1700    2.3200    5.2880 c3        1 MOL     -0.216459
    109 C39         1.0390   -0.2560    6.7760 c3        1 MOL     -0.319485
    110 H46        -0.6820    2.8440    3.7440 hn        1 MOL      0.304997
    111 H47        -0.3370    0.9180    4.7220 h1        1 MOL      0.016846
    112 H48         2.5390    0.8480    3.7620 hc        1 MOL      0.024723
    113 H49         3.0130   -0.1590    5.9760 hc        1 MOL      0.068985
    114 H50         1.9710   -1.1610    5.0460 hc        1 MOL      0.068985
    115 H51         2.4240    3.1260    4.6000 hc        1 MOL      0.057896
    116 H52         1.4340    2.7180    5.9890 hc        1 MOL      0.057896
    117 H53         3.0780    2.0810    5.8310 hc        1 MOL      0.057896
    118 H54         1.5280   -0.5720    7.6920 hc        1 MOL      0.079132
    119 H55         0.7390    0.7460    7.0900 hc        1 MOL      0.079132
    120 H56         0.1250   -0.8180    6.5560 hc        1 MOL      0.079132
    121 N11        -0.2610   -1.2800    3.4990 n         1 MOL     -0.211300
    122 C40        -0.3790   -2.3690    2.6150 c3        1 MOL      0.039089
    123 C41        -1.7130   -2.4030    1.8130 c         1 MOL      0.460132
    124 O16        -1.6720   -2.9560    0.7420 o         1 MOL     -0.534214
    125 C42        -0.2990   -3.7030    3.4070 c3        1 MOL      0.108482
    126 O17        -0.9960   -3.5500    4.6100 oh        1 MOL     -0.665175
    127 H57        -0.6660   -1.2110    4.4210 hn        1 MOL      0.313273
    128 H58         0.3740   -2.4000    1.8290 h1        1 MOL      0.091242
    129 H59         0.7450   -3.9580    3.5620 h1        1 MOL      0.060658
    130 H60        -0.6670   -4.5800    2.8510 h1        1 MOL      0.060658
    131 H61        -0.8930   -4.2780    5.2350 ho        1 MOL      0.432840
    132 N12        -2.8180   -1.8190    2.2630 n         1 MOL     -0.387738
    133 C43        -4.0480   -1.5450    1.4710 c3        1 MOL      0.044465
    134 C44        -3.9830   -0.1710    0.7790 c         1 MOL      0.592701
    135 O18        -3.1100    0.6500    1.0710 o         1 MOL     -0.568805
    136 C45        -5.2050   -1.6350    2.3920 c3        1 MOL     -0.143268
    137 H62        -2.7950   -1.4960    3.2250 hn        1 MOL      0.242246
    138 H63        -4.1410   -2.2650    0.6660 h1        1 MOL      0.094870
    139 H64        -5.2200   -2.6290    2.8520 hc        1 MOL      0.061899
    140 H65        -5.1650   -0.9690    3.2510 hc        1 MOL      0.061899
    141 H66        -6.1830   -1.5250    1.9340 hc        1 MOL      0.061899
    142 N13        -4.8750    0.1950   -0.1110 n         1 MOL     -0.566131
    143 C46        -5.8900   -0.4560   -0.8420 c3        1 MOL      0.216534
    144 C47        -6.9440    0.5580   -1.2990 c         1 MOL      0.350842
    145 O19        -6.7740    1.7710   -1.4670 o         1 MOL     -0.469955
    146 C48        -5.3110   -1.0870   -2.1140 c3        1 MOL     -0.303309
    147 H67        -4.8410    1.1720   -0.3510 hn        1 MOL      0.309144
    148 H68        -6.3700   -1.2890   -0.3380 h1        1 MOL      0.049492
    149 H69        -4.7530   -0.2850   -2.6110 hc        1 MOL      0.087266
    150 H70        -4.6940   -1.9380   -1.8140 hc        1 MOL      0.087266
    151 H71        -6.0400   -1.4910   -2.8180 hc        1 MOL      0.087266
    152 N14        -8.1620    0.0530   -1.4830 n         1 MOL     -0.151436
    153 C49        -8.6950   -1.3220   -1.3250 c3        1 MOL     -0.298298
    154 C50        -8.9460   -1.7740    0.1510 c         1 MOL      0.578095
    155 O20        -8.8320   -2.9530    0.4940 o         1 MOL     -0.566030
    156 C51       -10.0380   -1.5220   -2.1570 c3        1 MOL      0.179870
    157 C52       -11.3090   -0.6700   -2.0270 c3        1 MOL     -0.099047
    158 C53       -11.2920    0.6780   -2.7680 c         1 MOL      0.599809
    159 O21       -12.1280    0.8820   -3.7090 o         1 MOL     -0.629439
    160 O22       -10.4460    1.5970   -2.4740 o         1 MOL     -0.629439
    161 H72        -8.8650    0.7570   -1.6600 hn        1 MOL      0.163955
    162 H73        -7.9750   -2.0900   -1.6070 h1        1 MOL      0.090422
    163 H74       -10.4000   -2.5130   -1.8560 hc        1 MOL     -0.011362
    164 H75        -9.8080   -1.7200   -3.1950 hc        1 MOL     -0.011362
    165 H76       -11.4790   -0.5850   -0.9550 hc        1 MOL      0.006028
    166 H77       -12.2050   -1.1210   -2.4740 hc        1 MOL      0.006028
    167 N15        -9.2700   -0.8580    1.0220 n         1 MOL     -0.299572
    168 C54        -9.3570   -1.1940    2.4980 c3        1 MOL     -0.280570
    169 H78        -9.9580   -0.4400    3.0070 h1        1 MOL      0.126722
    170 H79        -9.8220   -2.1720    2.6210 h1        1 MOL      0.126722
    171 H80        -8.3550   -1.2110    2.9260 h1        1 MOL      0.126722
    172 H81        -9.5180    0.0680    0.7280 hn        1 MOL      0.266661
    173 Ca1         1.9830    0.7080   -0.4030 Ca        1 MOL      1.802808
    174 O23        -0.9650    0.9000   -0.5740 oh        1 MOL     -0.857156
    175 H82        -1.3160    1.2580   -1.3790 ho        1 MOL      0.403199
    176 H83        -1.7400    0.6390   -0.0670 ho        1 MOL      0.403199
    177 O24         0.6950   -0.0790   -3.1770 oh        1 MOL     -0.857156
    178 H84         0.1250   -0.3450   -3.8930 ho        1 MOL      0.403199
    179 H85         1.2870    0.5720   -3.5560 ho        1 MOL      0.403199
    180 O25         0.3810   -1.6870   -0.8330 oh        1 MOL     -0.857156
    181 H86        -0.3720   -2.2460   -0.6410 ho        1 MOL      0.403199
    182 H87         0.1310   -1.2070   -1.6290 ho        1 MOL      0.403199
    183 O26         1.0490    2.8860   -1.7540 oh        1 MOL     -0.857156
    184 H88         1.5720    3.0350   -2.5480 ho        1 MOL      0.403199
    185 H89         0.2000    3.2990   -1.9470 ho        1 MOL      0.403199
@<TRIPOS>BOND
     1    1    2 1   
     2    1    4 1   
     3    1    5 1   
     4    1    6 1   
     5    2    3 2   
     6    2    7 1   
     7    7    8 1   
     8    7   15 1   
     9    8    9 1   
    10    8   11 1   
    11    8   16 1   
    12    9   10 2   
    13    9   19 1   
    14   11   12 1   
    15   11   17 1   
    16   11   18 1   
    17   12   13 1   
    18   12   14 1   
    19   19   20 1   
    20   19   28 1   
    21   20   21 1   
    22   20   23 1   
    23   20   29 1   
    24   21   22 2   
    25   21   41 1   
    26   23   24 1   
    27   23   30 1   
    28   23   31 1   
    29   24   25 1   
    30   24   32 1   
    31   24   33 1   
    32   25   26 1   
    33   25   34 1   
    34   25   35 1   
    35   26   27 1   
    36   26   36 1   
    37   26   37 1   
    38   27   38 1   
    39   27   39 1   
    40   27   40 1   
    41   41   42 1   
    42   41   49 1   
    43   42   43 1   
    44   42   45 1   
    45   42   50 1   
    46   43   44 2   
    47   43   53 1   
    48   45   46 1   
    49   45   51 1   
    50   45   52 1   
    51   46   47 1   
    52   46   48 1   
    53   53   54 1   
    54   53   57 1   
    55   54   55 1   
    56   54   58 1   
    57   54   59 1   
    58   55   56 2   
    59   55   60 1   
    60   60   61 1   
    61   60   68 1   
    62   61   62 1   
    63   61   64 1   
    64   61   69 1   
    65   62   63 2   
    66   62   74 1   
    67   64   65 1   
    68   64   70 1   
    69   64   71 1   
    70   65   66 1   
    71   65   67 2   
    72   66   72 1   
    73   66   73 1   
    74   74   75 1   
    75   74   78 1   
    76   75   76 1   
    77   75   79 1   
    78   75   80 1   
    79   76   77 2   
    80   76   81 1   
    81   81   82 1   
    82   81   93 1   
    83   82   83 1   
    84   82   85 1   
    85   82   94 1   
    86   83   84 2   
    87   83  102 1   
    88   85   86 1   
    89   85   95 1   
    90   85   96 1   
    91   86   87 ar  
    92   86   88 ar  
    93   87   89 ar  
    94   87   97 1   
    95   88   90 ar  
    96   88   98 1   
    97   89   91 ar  
    98   89   99 1   
    99   90   91 ar  
   100   90  100 1   
   101   91   92 1   
   102   92  101 1   
   103  102  103 1   
   104  102  110 1   
   105  103  104 1   
   106  103  106 1   
   107  103  111 1   
   108  104  105 2   
   109  104  121 1   
   110  106  107 1   
   111  106  108 1   
   112  106  112 1   
   113  107  109 1   
   114  107  113 1   
   115  107  114 1   
   116  108  115 1   
   117  108  116 1   
   118  108  117 1   
   119  109  118 1   
   120  109  119 1   
   121  109  120 1   
   122  121  122 1   
   123  121  127 1   
   124  122  123 1   
   125  122  125 1   
   126  122  128 1   
   127  123  124 2   
   128  123  132 1   
   129  125  126 1   
   130  125  129 1   
   131  125  130 1   
   132  126  131 1   
   133  132  133 1   
   134  132  137 1   
   135  133  134 1   
   136  133  136 1   
   137  133  138 1   
   138  134  135 2   
   139  134  142 1   
   140  136  139 1   
   141  136  140 1   
   142  136  141 1   
   143  142  143 1   
   144  142  147 1   
   145  143  144 1   
   146  143  146 1   
   147  143  148 1   
   148  144  145 2   
   149  144  152 1   
   150  146  149 1   
   151  146  150 1   
   152  146  151 1   
   153  152  153 1   
   154  152  161 1   
   155  153  154 1   
   156  153  156 1   
   157  153  162 1   
   158  154  155 2   
   159  154  167 1   
   160  156  157 1   
   161  156  163 1   
   162  156  164 1   
   163  157  158 1   
   164  157  165 1   
   165  157  166 1   
   166  158  159 1   
   167  158  160 1   
   168  167  168 1   
   169  167  172 1   
   170  168  169 1   
   171  168  170 1   
   172  168  171 1   
   173  174  175 1   
   174  174  176 1   
   175  177  178 1   
   176  177  179 1   
   177  180  181 1   
   178  180  182 1   
   179  183  184 1   
   180  183  185 1   
@<TRIPOS>SUBSTRUCTURE
     1 MOL         1 TEMP              0 ****  ****    0 ROOT
