@<TRIPOS>MOLECULE
MOL
  178   175     1     0     0
SMALL
resp


@<TRIPOS>ATOM
      1 C1         12.7550   -5.2820   -2.7310 c3        1 MOL     -0.338632
      2 C2         12.8820   -3.7530   -2.5890 c         1 MOL      0.728445
      3 O1         13.2610   -3.0900   -3.5220 o         1 MOL     -0.610384
      4 H1         12.7070   -5.7360   -1.7410 hc        1 MOL      0.087281
      5 H2         11.8480   -5.5230   -3.2850 hc        1 MOL      0.087281
      6 H3         13.6210   -5.6710   -3.2660 hc        1 MOL      0.087281
      7 N1         12.4790   -3.2060   -1.4540 n         1 MOL     -0.615258
      8 C3         11.9530   -3.8250   -0.2320 c3        1 MOL      0.222852
      9 C4         12.4290   -3.0720    1.0300 c         1 MOL      0.326762
     10 O2         11.7850   -3.1390    2.0950 o         1 MOL     -0.508603
     11 C5         10.3790   -3.8910   -0.2550 c3        1 MOL     -0.304977
     12 C6          9.6730   -2.5680   -0.2480 c         1 MOL      0.950571
     13 O3          8.4110   -2.5150   -0.4670 o         1 MOL     -0.815910
     14 O4         10.3190   -1.5510   -0.2790 o         1 MOL     -0.815910
     15 H4         12.8160   -2.2610   -1.3250 hn        1 MOL      0.318250
     16 H5         12.3210   -4.8460   -0.1480 h1        1 MOL      0.060487
     17 H6         10.0480   -4.4730    0.5970 hc        1 MOL      0.079803
     18 H7         10.0680   -4.4720   -1.1310 hc        1 MOL      0.079803
     19 N2         13.4910   -2.3180    0.9530 n         1 MOL     -0.391240
     20 C7         13.9010   -1.5330    2.1600 c3        1 MOL      0.223969
     21 C8         13.0470   -0.3010    2.6240 c         1 MOL      0.288598
     22 O5         13.4630    0.3500    3.6020 o         1 MOL     -0.508029
     23 C9         15.3570   -1.0700    1.9290 c3        1 MOL     -0.343243
     24 H8         14.0550   -2.3360    0.1180 hn        1 MOL      0.265253
     25 H9         13.9390   -2.1840    3.0410 h1        1 MOL      0.073765
     26 H10        15.4310   -0.2760    1.2000 hc        1 MOL      0.098760
     27 H11        15.7370   -0.7130    2.8870 hc        1 MOL      0.098760
     28 H12        15.9160   -1.9280    1.5610 hc        1 MOL      0.098760
     29 N3         11.8820    0.0990    2.0000 n         1 MOL      0.048168
     30 C10        11.0970    1.2610    2.2750 c3        1 MOL     -0.455462
     31 C11         9.5990    1.0110    2.2280 c         1 MOL      0.690156
     32 O6          9.1170    0.0280    1.7170 o         1 MOL     -0.594424
     33 C12        11.6600    2.3710    1.3150 c3        1 MOL     -0.015019
     34 C13        11.5660    2.1580   -0.1980 c         1 MOL      0.638106
     35 O7         10.5000    1.6220   -0.5600 o         1 MOL     -0.689215
     36 O8         12.5080    2.5210   -0.9650 o         1 MOL     -0.689215
     37 H13        11.5790   -0.4960    1.2400 hn        1 MOL      0.179953
     38 H14        11.2520    1.5260    3.3160 h1        1 MOL      0.142171
     39 H15        12.7080    2.5020    1.5820 hc        1 MOL      0.026974
     40 H16        11.0980    3.2930    1.4510 hc        1 MOL      0.026974
     41 N4          8.8730    2.0340    2.6750 n         1 MOL     -0.355875
     42 C14         7.4460    1.8780    2.8930 c3        1 MOL     -0.361242
     43 C15         6.6100    1.6840    1.6590 c         1 MOL      0.934557
     44 O9          7.1880    1.7500    0.5770 o         1 MOL     -0.711061
     45 H17         9.3800    2.7620    3.1680 hn        1 MOL      0.300906
     46 H18         7.0890    2.8000    3.3420 h1        1 MOL      0.147251
     47 H19         7.3010    1.0890    3.6280 h1        1 MOL      0.147251
     48 N5          5.3390    1.3180    1.8280 n         1 MOL     -0.872075
     49 C16         4.4060    1.0650    0.7550 c3        1 MOL      0.536002
     50 C17         3.0680    1.8690    0.9080 c         1 MOL      0.482867
     51 O10         2.6950    2.0780    2.0410 o         1 MOL     -0.526335
     52 C18         4.1350   -0.4280    0.7040 c3        1 MOL     -0.362498
     53 C19         5.4080   -1.1560    0.4300 c         1 MOL      0.621827
     54 N6          5.8420   -2.1040    1.2770 n         1 MOL     -0.708667
     55 O11         6.0750   -0.8530   -0.5220 o         1 MOL     -0.497602
     56 H20         5.0550    1.1850    2.7870 hn        1 MOL      0.362434
     57 H21         4.9590    1.3730   -0.1360 h1        1 MOL     -0.072112
     58 H22         3.4840   -0.5590   -0.1710 hc        1 MOL      0.115129
     59 H23         3.8100   -0.8630    1.6460 hc        1 MOL      0.115129
     60 H24         5.3590   -2.3630    2.1320 hn        1 MOL      0.348639
     61 H25         6.7380   -2.5110    1.0520 hn        1 MOL      0.348639
     62 N7          2.2890    2.1580   -0.1560 n         1 MOL     -0.471060
     63 C20         0.9220    2.7960   -0.0210 c3        1 MOL     -0.061999
     64 C21         0.2010    2.8380   -1.3500 c         1 MOL      0.659895
     65 O12         0.5330    2.2060   -2.3300 o         1 MOL     -0.550480
     66 H26         2.5430    1.9260   -1.1020 hn        1 MOL      0.246314
     67 H27         1.1430    3.7890    0.3600 h1        1 MOL      0.135747
     68 H28         0.2730    2.1880    0.5990 h1        1 MOL      0.135747
     69 N8         -0.9140    3.5780   -1.4230 n         1 MOL     -0.564676
     70 C22        -1.5700    4.3080   -0.2900 c3        1 MOL     -0.032304
     71 C23        -2.9620    3.7880   -0.1060 c         1 MOL      0.511303
     72 O13        -3.7290    4.2220    0.7440 o         1 MOL     -0.602163
     73 C24        -1.6920    5.8080   -0.6430 c3        1 MOL      0.431303
     74 C25        -0.3460    6.4910   -0.5410 c3        1 MOL     -0.357238
     75 O14        -2.1250    5.8950   -1.9850 oh        1 MOL     -0.599315
     76 H29        -1.3700    3.6250   -2.3170 hn        1 MOL      0.347968
     77 H30        -1.0360    4.2980    0.6660 h1        1 MOL      0.068041
     78 H31        -2.3610    6.3390    0.0380 h1        1 MOL     -0.008176
     79 H32        -2.6100    6.7240   -1.9750 ho        1 MOL      0.394026
     80 H33         0.3770    5.9800   -1.1680 hc        1 MOL      0.069897
     81 H34        -0.4910    7.5370   -0.8070 hc        1 MOL      0.069897
     82 H35        -0.0400    6.4100    0.5060 hc        1 MOL      0.069897
     83 N9         -3.4110    2.9000   -0.9310 n         1 MOL     -0.352965
     84 C26        -4.8400    2.4470   -0.9520 c3        1 MOL     -0.062524
     85 C27        -4.8590    0.9230   -0.9980 c         1 MOL      0.575393
     86 O15        -4.0050    0.4040   -1.6910 o         1 MOL     -0.601489
     87 C28        -5.6110    3.1300   -2.1210 c3        1 MOL      0.042013
     88 C29        -5.6600    4.7250   -1.9690 c3        1 MOL      0.014408
     89 C30        -7.0320    2.5440   -2.2600 c3        1 MOL     -0.212257
     90 C31        -6.3030    5.4820   -3.0920 c3        1 MOL     -0.077678
     91 H36        -2.8310    2.7250   -1.7400 hn        1 MOL      0.251765
     92 H37        -5.2470    2.6720    0.0330 h1        1 MOL      0.168657
     93 H38        -5.1180    2.8090   -3.0340 hc        1 MOL      0.046611
     94 H39        -4.6330    5.0740   -1.8630 hc        1 MOL     -0.018983
     95 H40        -6.2000    4.9450   -1.0480 hc        1 MOL     -0.018983
     96 H41        -6.9790    1.4570   -2.2500 hc        1 MOL      0.082470
     97 H42        -7.7090    3.0540   -1.5760 hc        1 MOL      0.082470
     98 H43        -7.3570    2.9100   -3.2390 hc        1 MOL      0.082470
     99 H44        -5.7760    5.2570   -4.0150 hc        1 MOL      0.010459
    100 H45        -7.3440    5.2160   -3.2670 hc        1 MOL      0.010459
    101 H46        -6.2970    6.5730   -2.9800 hc        1 MOL      0.010459
    102 N10        -5.6120    0.1160   -0.3020 n         1 MOL     -0.370668
    103 C32        -6.4540    0.6470    0.7670 c3        1 MOL      0.251980
    104 C33        -7.7160   -0.1900    0.9290 c         1 MOL      0.571236
    105 O16        -7.8630   -1.1820    0.2350 o         1 MOL     -0.527567
    106 C34        -5.7050    0.6810    2.1350 c3        1 MOL     -0.135335
    107 C35        -4.5860   -0.2730    2.3090 c         1 MOL      0.650205
    108 O17        -4.8260   -1.4660    2.1750 o         1 MOL     -0.716701
    109 O18        -3.3800    0.1880    2.5400 o         1 MOL     -0.716701
    110 H47        -5.4600   -0.8760   -0.3960 hn        1 MOL      0.315216
    111 H48        -6.8180    1.6530    0.5600 h1        1 MOL     -0.066396
    112 H49        -6.4210    0.4210    2.9180 hc        1 MOL     -0.016455
    113 H50        -5.3740    1.6850    2.3860 hc        1 MOL     -0.016455
    114 N11        -8.5600    0.2400    1.8710 n         1 MOL     -0.574285
    115 C36        -9.9470   -0.2520    2.1230 c3        1 MOL      0.319058
    116 C37       -11.0040    0.1810    0.9930 c         1 MOL      0.276261
    117 O19       -10.8770    1.2870    0.4160 o         1 MOL     -0.488672
    118 C38       -10.3860    0.1740    3.5510 c3        1 MOL     -0.147256
    119 C39       -11.6350   -0.6050    4.0060 ca        1 MOL      0.042688
    120 C40       -11.4900   -1.9150    4.4900 ca        1 MOL     -0.173858
    121 C41       -12.8850   -0.0360    3.8640 ca        1 MOL     -0.173858
    122 C42       -12.6200   -2.6200    4.8750 ca        1 MOL     -0.098058
    123 C43       -14.0290   -0.7780    4.2200 ca        1 MOL     -0.098058
    124 C44       -13.9140   -2.1010    4.7360 ca        1 MOL     -0.126457
    125 H51        -8.2120    1.0110    2.4260 hn        1 MOL      0.271588
    126 H52        -9.8780   -1.3310    2.0370 h1        1 MOL      0.019934
    127 H53       -10.5560    1.2320    3.7200 hc        1 MOL      0.068132
    128 H54        -9.5540   -0.1270    4.1930 hc        1 MOL      0.068132
    129 H55       -10.5680   -2.4790    4.5830 ha        1 MOL      0.140073
    130 H56       -13.0460    1.0130    3.6660 ha        1 MOL      0.140073
    131 H57       -12.4360   -3.6090    5.2730 ha        1 MOL      0.098806
    132 H58       -14.9800   -0.3050    4.3890 ha        1 MOL      0.098806
    133 H59       -14.8080   -2.5920    5.0970 ha        1 MOL      0.099709
    134 N12       -11.9320   -0.7070    0.5890 n         1 MOL      0.034365
    135 C45       -11.9730   -2.2030    0.7720 c3        1 MOL      0.020669
    136 C46       -10.9460   -2.9100   -0.1130 c         1 MOL      0.365350
    137 O20       -10.3220   -3.9060    0.3600 o         1 MOL     -0.554982
    138 C47       -13.4160   -2.6160    0.4910 c3        1 MOL      0.116573
    139 C48       -14.2700   -1.3380    0.5520 c3        1 MOL      0.035859
    140 C49       -13.1960   -0.3150    0.0670 c3        1 MOL     -0.268151
    141 H60       -11.8610   -2.4380    1.8280 h1        1 MOL      0.048547
    142 H61       -13.5230   -2.9560   -0.5360 hc        1 MOL     -0.019756
    143 H62       -13.7510   -3.4330    1.1270 hc        1 MOL     -0.019756
    144 H63       -15.1850   -1.4420   -0.0270 hc        1 MOL     -0.005678
    145 H64       -14.6640   -1.2400    1.5600 hc        1 MOL     -0.005678
    146 H65       -13.2170   -0.2360   -1.0210 h1        1 MOL      0.098411
    147 H66       -13.3770    0.6730    0.4840 h1        1 MOL      0.098411
    148 N13       -10.7360   -2.5020   -1.3420 n         1 MOL     -0.214576
    149 C50        -9.5580   -3.0200   -2.1550 c3        1 MOL      0.056067
    150 C51        -9.8280   -4.4540   -2.6540 c         1 MOL      0.382634
    151 O21       -10.9430   -4.7300   -3.1270 o         1 MOL     -0.578163
    152 C52        -9.2670   -2.1530   -3.4120 c3        1 MOL      0.026630
    153 C53        -8.7210   -0.7870   -2.9320 c3        1 MOL     -0.011383
    154 C54        -8.6680    0.2570   -4.0510 c         1 MOL      0.693359
    155 O22        -9.6650    0.9850   -4.2550 o         1 MOL     -0.745521
    156 O23        -7.6930    0.1990   -4.8510 o         1 MOL     -0.745521
    157 H67       -11.3690   -1.8250   -1.7320 hn        1 MOL      0.236028
    158 H68        -8.7370   -3.0390   -1.4380 h1        1 MOL      0.152223
    159 H69       -10.2700   -1.9790   -3.8240 hc        1 MOL      0.011176
    160 H70        -8.6050   -2.5490   -4.1840 hc        1 MOL      0.011176
    161 H71        -7.6970   -0.9360   -2.5850 hc        1 MOL     -0.066604
    162 H72        -9.2770   -0.3430   -2.1110 hc        1 MOL     -0.066604
    163 N14        -8.8870   -5.4000   -2.5980 n         1 MOL     -0.309097
    164 C55        -7.5190   -5.3400   -2.1500 c3        1 MOL     -0.075151
    165 H73        -7.3130   -6.1890   -1.4970 h1        1 MOL      0.060970
    166 H74        -6.8510   -5.3730   -3.0110 h1        1 MOL      0.060970
    167 H75        -7.3570   -4.4130   -1.6000 h1        1 MOL      0.060970
    168 H76        -9.0990   -6.2070   -3.1690 hn        1 MOL      0.250948
    169 Ca1         8.5670    0.1040   -1.0440 Ca        1 MOL      1.762054
    170 O24         7.4000   -0.6270   -3.3730 oh        1 MOL     -0.874671
    171 H77         7.9660   -0.9730   -4.0610 ho        1 MOL      0.431653
    172 H78         6.5380   -0.5720   -3.7860 ho        1 MOL      0.431653
    173 O25        10.3810   -1.2410   -3.3050 oh        1 MOL     -0.874671
    174 H79        11.2100   -1.5110   -2.9220 ho        1 MOL      0.431653
    175 H80        10.5920   -1.0840   -4.2320 ho        1 MOL      0.431653
    176 O26         7.0090    2.1350   -2.1640 oh        1 MOL     -0.874671
    177 H81         6.8620    2.3820   -3.0760 ho        1 MOL      0.431653
    178 H82         6.4220    2.7080   -1.6640 ho        1 MOL      0.431653
@<TRIPOS>BOND
     1    1    2 1   
     2    1    4 1   
     3    1    5 1   
     4    1    6 1   
     5    2    3 2   
     6    2    7 1   
     7    7    8 1   
     8    7   15 1   
     9    8    9 1   
    10    8   11 1   
    11    8   16 1   
    12    9   10 2   
    13    9   19 1   
    14   11   12 1   
    15   11   17 1   
    16   11   18 1   
    17   12   13 1   
    18   12   14 1   
    19   19   20 1   
    20   19   24 1   
    21   20   21 1   
    22   20   23 1   
    23   20   25 1   
    24   21   22 2   
    25   21   29 1   
    26   23   26 1   
    27   23   27 1   
    28   23   28 1   
    29   29   30 1   
    30   29   37 1   
    31   30   31 1   
    32   30   33 1   
    33   30   38 1   
    34   31   32 2   
    35   31   41 1   
    36   33   34 1   
    37   33   39 1   
    38   33   40 1   
    39   34   35 1   
    40   34   36 1   
    41   41   42 1   
    42   41   45 1   
    43   42   43 1   
    44   42   46 1   
    45   42   47 1   
    46   43   44 2   
    47   43   48 1   
    48   48   49 1   
    49   48   56 1   
    50   49   50 1   
    51   49   52 1   
    52   49   57 1   
    53   50   51 2   
    54   50   62 1   
    55   52   53 1   
    56   52   58 1   
    57   52   59 1   
    58   53   54 1   
    59   53   55 2   
    60   54   60 1   
    61   54   61 1   
    62   62   63 1   
    63   62   66 1   
    64   63   64 1   
    65   63   67 1   
    66   63   68 1   
    67   64   65 2   
    68   64   69 1   
    69   69   70 1   
    70   69   76 1   
    71   70   71 1   
    72   70   73 1   
    73   70   77 1   
    74   71   72 2   
    75   71   83 1   
    76   73   74 1   
    77   73   75 1   
    78   73   78 1   
    79   74   80 1   
    80   74   81 1   
    81   74   82 1   
    82   75   79 1   
    83   83   84 1   
    84   83   91 1   
    85   84   85 1   
    86   84   87 1   
    87   84   92 1   
    88   85   86 2   
    89   85  102 1   
    90   87   88 1   
    91   87   89 1   
    92   87   93 1   
    93   88   90 1   
    94   88   94 1   
    95   88   95 1   
    96   89   96 1   
    97   89   97 1   
    98   89   98 1   
    99   90   99 1   
   100   90  100 1   
   101   90  101 1   
   102  102  103 1   
   103  102  110 1   
   104  103  104 1   
   105  103  106 1   
   106  103  111 1   
   107  104  105 2   
   108  104  114 1   
   109  106  107 1   
   110  106  112 1   
   111  106  113 1   
   112  107  108 1   
   113  107  109 1   
   114  114  115 1   
   115  114  125 1   
   116  115  116 1   
   117  115  118 1   
   118  115  126 1   
   119  116  117 2   
   120  116  134 1   
   121  118  119 1   
   122  118  127 1   
   123  118  128 1   
   124  119  120 ar  
   125  119  121 ar  
   126  120  122 ar  
   127  120  129 1   
   128  121  123 ar  
   129  121  130 1   
   130  122  124 ar  
   131  122  131 1   
   132  123  124 ar  
   133  123  132 1   
   134  124  133 1   
   135  134  135 1   
   136  134  140 1   
   137  135  136 1   
   138  135  138 1   
   139  135  141 1   
   140  136  137 2   
   141  136  148 1   
   142  138  139 1   
   143  138  142 1   
   144  138  143 1   
   145  139  140 1   
   146  139  144 1   
   147  139  145 1   
   148  140  146 1   
   149  140  147 1   
   150  148  149 1   
   151  148  157 1   
   152  149  150 1   
   153  149  152 1   
   154  149  158 1   
   155  150  151 2   
   156  150  163 1   
   157  152  153 1   
   158  152  159 1   
   159  152  160 1   
   160  153  154 1   
   161  153  161 1   
   162  153  162 1   
   163  154  155 1   
   164  154  156 1   
   165  163  164 1   
   166  163  168 1   
   167  164  165 1   
   168  164  166 1   
   169  164  167 1   
   170  170  171 1   
   171  170  172 1   
   172  173  174 1   
   173  173  175 1   
   174  176  177 1   
   175  176  178 1   
@<TRIPOS>SUBSTRUCTURE
     1 MOL         1 TEMP              0 ****  ****    0 ROOT
