@<TRIPOS>MOLECULE
MOL
  192   187     1     0     0
SMALL
resp


@<TRIPOS>ATOM
      1 C1          8.4640    2.8000    1.4970 c3        1 MOL     -0.417608
      2 C2          7.5800    1.6910    0.8610 c         1 MOL      0.878524
      3 O1          6.6410    1.1650    1.4530 o         1 MOL     -0.741349
      4 H1          9.0740    2.3680    2.2890 hc        1 MOL      0.096044
      5 H2          9.1130    3.2310    0.7340 hc        1 MOL      0.096044
      6 H3          7.8260    3.5800    1.9140 hc        1 MOL      0.096044
      7 N1          7.9490    1.4160   -0.3570 n         1 MOL     -0.648058
      8 C3          7.1050    0.8420   -1.3860 c3        1 MOL     -0.012414
      9 C4          7.0360   -0.7300   -1.3520 c         1 MOL      0.369169
     10 O2          7.0370   -1.4250   -2.3510 o         1 MOL     -0.421425
     11 C5          7.5850    1.4010   -2.7620 c3        1 MOL     -0.150320
     12 C6          9.0640    1.0860   -3.0170 c         1 MOL      0.719487
     13 O3          9.6280    1.6580   -3.9500 o         1 MOL     -0.669278
     14 O4          9.6920    0.2130   -2.3000 o         1 MOL     -0.669278
     15 H4          8.7680    1.9100   -0.6900 hn        1 MOL      0.313764
     16 H5          6.1000    1.2340   -1.2160 h1        1 MOL      0.140989
     17 H6          7.4330    2.4770   -2.6780 hc        1 MOL      0.057841
     18 H7          6.9200    1.1520   -3.5860 hc        1 MOL      0.057841
     19 N2          6.8610   -1.2320   -0.0910 n         1 MOL     -0.250205
     20 C7          6.7300   -2.6530    0.2840 c3        1 MOL      0.136871
     21 C8          5.3510   -3.1400   -0.2070 c         1 MOL      0.398975
     22 O5          5.3420   -4.1220   -0.9930 o         1 MOL     -0.522274
     23 C9          7.1600   -2.7250    1.7660 c3        1 MOL     -0.044545
     24 C10         8.6290   -2.2210    1.9650 c3        1 MOL     -0.069795
     25 C11         9.6640   -3.1140    1.2960 c3        1 MOL     -0.047757
     26 C12        11.0620   -2.7980    1.9000 c3        1 MOL      0.011069
     27 N3         11.9810   -3.8760    1.5100 n4        1 MOL     -0.297202
     28 H8          6.6280   -0.5370    0.6040 hn        1 MOL      0.268978
     29 H9          7.4520   -3.3050   -0.2110 h1        1 MOL      0.019191
     30 H10         7.1740   -3.7670    2.0770 hc        1 MOL      0.001971
     31 H11         6.3950   -2.1880    2.3310 hc        1 MOL      0.001971
     32 H12         8.7190   -2.2610    3.0520 hc        1 MOL      0.023536
     33 H13         8.8050   -1.1850    1.6600 hc        1 MOL      0.023536
     34 H14         9.7080   -2.9780    0.2180 hc        1 MOL      0.070593
     35 H15         9.4080   -4.1620    1.4770 hc        1 MOL      0.070593
     36 H16        10.9970   -2.6640    2.9780 hx        1 MOL      0.090634
     37 H17        11.4510   -1.8260    1.5870 hx        1 MOL      0.090634
     38 H18        12.9360   -3.6080    1.6480 hn        1 MOL      0.296824
     39 H19        11.7890   -4.6180    2.1590 hn        1 MOL      0.296824
     40 H20        11.9650   -4.2970    0.5840 hn        1 MOL      0.296824
     41 N4          4.2040   -2.5660    0.1570 n         1 MOL     -0.385718
     42 C13         3.8990   -1.4060    1.0230 c3        1 MOL      0.151107
     43 C14         3.7620   -0.1570    0.1660 c         1 MOL      0.330609
     44 O6          3.7770   -0.1360   -1.0960 o         1 MOL     -0.481426
     45 C15         2.6640   -1.7130    1.8890 c3        1 MOL     -0.554840
     46 C16         1.4490   -2.1620    1.0240 c         1 MOL      0.848661
     47 O7          0.8250   -1.3120    0.3630 o         1 MOL     -0.729406
     48 O8          1.2390   -3.3880    0.7840 o         1 MOL     -0.729406
     49 H21         3.3680   -3.0180   -0.2040 hn        1 MOL      0.341610
     50 H22         4.6980   -1.3030    1.7480 h1        1 MOL      0.093297
     51 H23         2.3440   -0.8030    2.3860 hc        1 MOL      0.118035
     52 H24         2.9050   -2.5070    2.5850 hc        1 MOL      0.118035
     53 N5          3.7530    1.0170    0.8260 n         1 MOL     -0.103244
     54 C17         3.5060    2.3930    0.3940 c3        1 MOL     -0.020560
     55 C18         2.2350    2.6670   -0.4470 c         1 MOL      0.345082
     56 O9          1.3460    1.8130   -0.5260 o         1 MOL     -0.295647
     57 H25         3.8670    0.9580    1.8240 hn        1 MOL      0.211232
     58 H26         4.3950    2.8020   -0.0920 h1        1 MOL      0.025391
     59 H27         3.3840    2.9290    1.3320 h1        1 MOL      0.025391
     60 N6          2.1790    3.8630   -0.9920 n         1 MOL     -0.335269
     61 C19         1.0150    4.4470   -1.6490 c3        1 MOL      0.050741
     62 C20         1.2160    6.0080   -1.5900 c         1 MOL      0.458914
     63 O10         2.3460    6.4050   -1.5790 o         1 MOL     -0.508701
     64 C21         0.9130    4.0900   -3.1890 c3        1 MOL     -0.393193
     65 C22         0.7520    2.5890   -3.3700 c         1 MOL      0.726796
     66 O11        -0.2350    2.0850   -2.8570 o         1 MOL     -0.686252
     67 O12         1.6270    2.0020   -4.0800 o         1 MOL     -0.686252
     68 H28         3.0120    4.4310   -0.8630 hn        1 MOL      0.278307
     69 H29         0.1770    4.1990   -0.9960 h1        1 MOL      0.117887
     70 H30         1.8420    4.4670   -3.6220 hc        1 MOL      0.122614
     71 H31         0.2380    4.7560   -3.7200 hc        1 MOL      0.122614
     72 N7          0.1340    6.8690   -1.5760 n         1 MOL     -0.376139
     73 C23        -1.2710    6.5220   -1.7440 c3        1 MOL     -0.064915
     74 C24        -1.8250    6.1030   -0.3740 c         1 MOL      0.466742
     75 O13        -1.6210    6.9210    0.5800 o         1 MOL     -0.523076
     76 H32         0.3490    7.8600   -1.4910 hn        1 MOL      0.297413
     77 H33        -1.3950    5.6910   -2.4460 h1        1 MOL      0.078069
     78 H34        -1.8180    7.4060   -2.0540 h1        1 MOL      0.078069
     79 N8         -2.4810    4.9110   -0.2280 n         1 MOL     -0.350739
     80 C25        -2.9400    4.3060    1.0210 c3        1 MOL      0.049271
     81 C26        -2.0250    3.0290    1.2820 c         1 MOL      0.798881
     82 O14        -1.2200    2.7400    0.3910 o         1 MOL     -0.756588
     83 C27        -4.4730    3.9240    0.9810 c3        1 MOL      0.163684
     84 C28        -4.7790    3.1650   -0.2520 c3        1 MOL      0.033187
     85 O15        -5.2660    5.0360    0.9220 oh        1 MOL     -0.587674
     86 H35        -2.5420    4.3830   -1.0790 hn        1 MOL      0.259791
     87 H36        -2.8560    4.9590    1.8870 h1        1 MOL      0.046156
     88 H37        -4.8290    3.4220    1.8740 h1        1 MOL      0.028410
     89 H38        -5.3190    5.2650    1.8480 ho        1 MOL      0.380604
     90 H39        -5.8370    2.9240   -0.2830 hc        1 MOL     -0.022484
     91 H40        -4.4280    3.6240   -1.1780 hc        1 MOL     -0.022484
     92 H41        -4.3230    2.1770   -0.1590 hc        1 MOL     -0.022484
     93 N9         -2.0110    2.5330    2.4740 n         1 MOL     -0.738231
     94 C29        -1.2200    1.4230    3.0920 c3        1 MOL      0.479850
     95 C30        -1.5820    0.0730    2.5710 c         1 MOL      0.032673
     96 O16        -1.6590   -0.1860    1.3510 o         1 MOL     -0.400402
     97 C31         0.2160    1.6310    2.9960 c3        1 MOL      0.819288
     98 C32         0.6530    3.0790    3.1900 c3        1 MOL     -0.441357
     99 C33         0.9380    0.7580    4.0860 c3        1 MOL     -0.545251
    100 C34         0.1060    3.7420    4.4650 c3        1 MOL     -0.074676
    101 H42        -2.7420    2.9220    3.0530 hn        1 MOL      0.291236
    102 H43        -1.4700    1.4050    4.1580 h1        1 MOL     -0.091626
    103 H44         0.5360    1.3550    1.9940 hc        1 MOL     -0.420047
    104 H45         0.3280    3.6360    2.3090 hc        1 MOL      0.149558
    105 H46         1.7380    3.0730    3.3020 hc        1 MOL      0.149558
    106 H47         0.7100    1.1700    5.0730 hc        1 MOL      0.109128
    107 H48         0.5970   -0.2740    3.9710 hc        1 MOL      0.109128
    108 H49         2.0090    0.8600    3.9180 hc        1 MOL      0.109128
    109 H50         0.2290    4.8190    4.4260 hc        1 MOL      0.021059
    110 H51        -0.9680    3.5890    4.5950 hc        1 MOL      0.021059
    111 H52         0.5740    3.3340    5.3590 hc        1 MOL      0.021059
    112 N10        -1.7220   -0.8910    3.4850 n         1 MOL      0.014153
    113 C35        -2.0290   -2.2920    3.1090 c3        1 MOL     -0.073665
    114 C36        -3.4490   -2.4230    2.5550 c         1 MOL      0.423645
    115 O17        -3.7450   -3.3870    1.8580 o         1 MOL     -0.480924
    116 C37        -1.7770   -3.2850    4.2360 c3        1 MOL      0.401379
    117 C38        -2.8750   -3.3500    5.2750 c3        1 MOL     -0.465462
    118 O18        -0.6740   -2.8910    5.0240 oh        1 MOL     -0.602434
    119 H53        -1.4800   -0.6540    4.4390 hn        1 MOL      0.153915
    120 H54        -1.3670   -2.5420    2.2850 h1        1 MOL      0.019382
    121 H55        -1.5230   -4.2520    3.8240 h1        1 MOL      0.033420
    122 H56         0.1050   -3.2190    4.5710 ho        1 MOL      0.385132
    123 H57        -3.0660   -2.3730    5.7080 hc        1 MOL      0.124764
    124 H58        -3.7820   -3.7120    4.7970 hc        1 MOL      0.124764
    125 H59        -2.5520   -4.0170    6.0730 hc        1 MOL      0.124764
    126 N11        -4.3420   -1.5170    3.0070 n         1 MOL     -0.146252
    127 C39        -5.7520   -1.4580    2.5540 c3        1 MOL     -0.268525
    128 C40        -5.7990   -1.1890    1.0580 c         1 MOL      0.616123
    129 O19        -5.0970   -0.3310    0.5700 o         1 MOL     -0.433018
    130 C41        -6.6240   -0.2880    3.2280 c3        1 MOL      0.423940
    131 C42        -7.1810   -0.7200    4.4840 c3        1 MOL     -0.528004
    132 O20        -5.8410    0.8250    3.4240 oh        1 MOL     -0.670071
    133 H60        -4.0080   -0.7810    3.6130 hn        1 MOL      0.098943
    134 H61        -6.3370   -2.3500    2.7840 h1        1 MOL      0.108699
    135 H62        -7.4570   -0.0820    2.5530 h1        1 MOL      0.068624
    136 H63        -5.3880    0.7640    4.2650 ho        1 MOL      0.432976
    137 H64        -7.4750    0.1460    5.0790 hc        1 MOL      0.140052
    138 H65        -8.0850   -1.2720    4.2330 hc        1 MOL      0.140052
    139 H66        -6.4670   -1.2880    5.0810 hc        1 MOL      0.140052
    140 N12        -6.6300   -1.9160    0.3190 n         1 MOL     -0.662212
    141 C43        -6.7650   -1.8920   -1.1660 c3        1 MOL      0.111980
    142 C44        -5.4480   -2.2260   -1.9370 c         1 MOL      0.440753
    143 O21        -5.2000   -1.6860   -3.0230 o         1 MOL     -0.530562
    144 C45        -7.3950   -0.5760   -1.6380 c3        1 MOL     -0.096856
    145 C46        -8.8040   -0.2810   -1.0130 c3        1 MOL     -0.054416
    146 C47        -9.5190    0.8630   -1.7310 c3        1 MOL     -0.091159
    147 C48        -8.7780    2.2090   -1.4530 c3        1 MOL     -0.029720
    148 N13        -9.3900    3.4040   -1.9630 n4        1 MOL     -0.217200
    149 H67        -7.2100   -2.6050    0.7780 hn        1 MOL      0.336165
    150 H68        -7.4740   -2.6650   -1.4470 h1        1 MOL      0.096026
    151 H69        -7.4560   -0.6500   -2.7270 hc        1 MOL      0.059997
    152 H70        -6.7100    0.2590   -1.4810 hc        1 MOL      0.059997
    153 H71        -8.7660   -0.1310    0.0650 hc        1 MOL      0.043227
    154 H72        -9.4290   -1.1390   -1.2500 hc        1 MOL      0.043227
    155 H73       -10.5190    0.8680   -1.3020 hc        1 MOL      0.056116
    156 H74        -9.7170    0.7310   -2.7960 hc        1 MOL      0.056116
    157 H75        -7.9140    1.9810   -2.0810 hx        1 MOL      0.107508
    158 H76        -8.5010    2.3580   -0.4050 hx        1 MOL      0.107508
    159 H77        -9.6370    3.2260   -2.9300 hn        1 MOL      0.223672
    160 H78       -10.2840    3.5200   -1.5060 hn        1 MOL      0.223672
    161 H79        -8.7730    4.2030   -1.8870 hn        1 MOL      0.223672
    162 N14        -4.6120   -3.1020   -1.3940 n         1 MOL     -0.383779
    163 C49        -3.3940   -3.5990   -1.9630 c3        1 MOL      0.217682
    164 C50        -2.1290   -3.4420   -1.1430 c         1 MOL      0.331315
    165 O22        -1.5020   -2.3510   -1.1000 o         1 MOL     -0.578649
    166 C51        -3.6250   -5.0180   -2.5870 c3        1 MOL     -0.054463
    167 C52        -4.6510   -4.8880   -3.7870 c3        1 MOL     -0.130864
    168 C53        -4.6350   -6.1580   -4.6220 c         1 MOL      0.624880
    169 O23        -3.8350   -6.1300   -5.6090 o         1 MOL     -0.629455
    170 O24        -5.2150   -7.2040   -4.2170 o         1 MOL     -0.629455
    171 H80        -4.8170   -3.4720   -0.4770 hn        1 MOL      0.267738
    172 H81        -3.2120   -2.9740   -2.8390 h1        1 MOL      0.094822
    173 H82        -4.0410   -5.7710   -1.9200 hc        1 MOL      0.057396
    174 H83        -2.7060   -5.3450   -3.0730 hc        1 MOL      0.057396
    175 H84        -4.3160   -4.0040   -4.3210 hc        1 MOL      0.004669
    176 H85        -5.6670   -4.8290   -3.3940 hc        1 MOL      0.004669
    177 N15        -1.6080   -4.3230   -0.2890 n         1 MOL     -0.229159
    178 C54        -1.8000   -5.7950   -0.1370 c3        1 MOL     -0.065420
    179 H86        -2.0350   -6.0240    0.9020 h1        1 MOL      0.040899
    180 H87        -2.6210   -6.1230   -0.7740 h1        1 MOL      0.040899
    181 H88        -0.8860   -6.3130   -0.4260 h1        1 MOL      0.040899
    182 H89        -0.8060   -4.0160    0.2280 hn        1 MOL      0.337776
    183 Ca1        -0.7420    0.1740   -1.0550 Ca        1 MOL      1.810447
    184 O25        -3.3780    0.2910   -1.4400 oh        1 MOL     -0.926566
    185 H90        -3.9280    0.4870   -2.1990 ho        1 MOL      0.440170
    186 H91        -3.9930   -0.0380   -0.7840 ho        1 MOL      0.440170
    187 O26         1.4070   -0.3200   -2.4780 oh        1 MOL     -0.926566
    188 H92         2.2230   -0.3920   -1.9730 ho        1 MOL      0.440170
    189 H93         1.6570    0.1680   -3.2620 ho        1 MOL      0.440170
    190 O27        -1.4400   -0.5420   -3.5730 oh        1 MOL     -0.926566
    191 H94        -0.9370   -0.1950   -4.3020 ho        1 MOL      0.440170
    192 H95        -2.1870   -0.9790   -3.9780 ho        1 MOL      0.440170
@<TRIPOS>BOND
     1    1    2 1   
     2    1    4 1   
     3    1    5 1   
     4    1    6 1   
     5    2    3 2   
     6    2    7 1   
     7    7    8 1   
     8    7   15 1   
     9    8    9 1   
    10    8   11 1   
    11    8   16 1   
    12    9   10 2   
    13    9   19 1   
    14   11   12 1   
    15   11   17 1   
    16   11   18 1   
    17   12   13 1   
    18   12   14 1   
    19   19   20 1   
    20   19   28 1   
    21   20   21 1   
    22   20   23 1   
    23   20   29 1   
    24   21   22 2   
    25   21   41 1   
    26   23   24 1   
    27   23   30 1   
    28   23   31 1   
    29   24   25 1   
    30   24   32 1   
    31   24   33 1   
    32   25   26 1   
    33   25   34 1   
    34   25   35 1   
    35   26   27 1   
    36   26   36 1   
    37   26   37 1   
    38   27   38 1   
    39   27   39 1   
    40   27   40 1   
    41   41   42 1   
    42   41   49 1   
    43   42   43 1   
    44   42   45 1   
    45   42   50 1   
    46   43   44 2   
    47   43   53 1   
    48   45   46 1   
    49   45   51 1   
    50   45   52 1   
    51   46   47 1   
    52   46   48 1   
    53   53   54 1   
    54   53   57 1   
    55   54   55 1   
    56   54   58 1   
    57   54   59 1   
    58   55   56 2   
    59   55   60 1   
    60   60   61 1   
    61   60   68 1   
    62   61   62 1   
    63   61   64 1   
    64   61   69 1   
    65   62   63 2   
    66   62   72 1   
    67   64   65 1   
    68   64   70 1   
    69   64   71 1   
    70   65   66 1   
    71   65   67 1   
    72   72   73 1   
    73   72   76 1   
    74   73   74 1   
    75   73   77 1   
    76   73   78 1   
    77   74   75 2   
    78   74   79 1   
    79   79   80 1   
    80   79   86 1   
    81   80   81 1   
    82   80   83 1   
    83   80   87 1   
    84   81   82 2   
    85   81   93 1   
    86   83   84 1   
    87   83   85 1   
    88   83   88 1   
    89   84   90 1   
    90   84   91 1   
    91   84   92 1   
    92   85   89 1   
    93   93   94 1   
    94   93  101 1   
    95   94   95 1   
    96   94   97 1   
    97   94  102 1   
    98   95   96 2   
    99   95  112 1   
   100   97   98 1   
   101   97   99 1   
   102   97  103 1   
   103   98  100 1   
   104   98  104 1   
   105   98  105 1   
   106   99  106 1   
   107   99  107 1   
   108   99  108 1   
   109  100  109 1   
   110  100  110 1   
   111  100  111 1   
   112  112  113 1   
   113  112  119 1   
   114  113  114 1   
   115  113  116 1   
   116  113  120 1   
   117  114  115 2   
   118  114  126 1   
   119  116  117 1   
   120  116  118 1   
   121  116  121 1   
   122  117  123 1   
   123  117  124 1   
   124  117  125 1   
   125  118  122 1   
   126  126  127 1   
   127  126  133 1   
   128  127  128 1   
   129  127  130 1   
   130  127  134 1   
   131  128  129 2   
   132  128  140 1   
   133  130  131 1   
   134  130  132 1   
   135  130  135 1   
   136  131  137 1   
   137  131  138 1   
   138  131  139 1   
   139  132  136 1   
   140  140  141 1   
   141  140  149 1   
   142  141  142 1   
   143  141  144 1   
   144  141  150 1   
   145  142  143 2   
   146  142  162 1   
   147  144  145 1   
   148  144  151 1   
   149  144  152 1   
   150  145  146 1   
   151  145  153 1   
   152  145  154 1   
   153  146  147 1   
   154  146  155 1   
   155  146  156 1   
   156  147  148 1   
   157  147  157 1   
   158  147  158 1   
   159  148  159 1   
   160  148  160 1   
   161  148  161 1   
   162  162  163 1   
   163  162  171 1   
   164  163  164 1   
   165  163  166 1   
   166  163  172 1   
   167  164  165 2   
   168  164  177 1   
   169  166  167 1   
   170  166  173 1   
   171  166  174 1   
   172  167  168 1   
   173  167  175 1   
   174  167  176 1   
   175  168  169 1   
   176  168  170 1   
   177  177  178 1   
   178  177  182 1   
   179  178  179 1   
   180  178  180 1   
   181  178  181 1   
   182  184  185 1   
   183  184  186 1   
   184  187  188 1   
   185  187  189 1   
   186  190  191 1   
   187  190  192 1   
@<TRIPOS>SUBSTRUCTURE
     1 MOL         1 TEMP              0 ****  ****    0 ROOT
