@<TRIPOS>MOLECULE
MOL
  192   187     1     0     0
SMALL
resp


@<TRIPOS>ATOM
      1 C1          9.2020    0.3800    2.1050 c3        1 MOL     -0.466529
      2 C2          8.1470    0.4420    1.0080 c         1 MOL      0.649641
      3 O1          6.9590    0.6850    1.2670 o         1 MOL     -0.598534
      4 H1          8.8840    0.9910    2.9500 hc        1 MOL      0.119646
      5 H2          9.3290   -0.6520    2.4310 hc        1 MOL      0.119646
      6 H3         10.1490    0.7580    1.7200 hc        1 MOL      0.119646
      7 N1          8.5390    0.2660   -0.2480 n         1 MOL     -0.400131
      8 C3          7.5580   -0.0070   -1.3180 c3        1 MOL     -0.155913
      9 C4          6.8120   -1.3760   -1.2180 c         1 MOL      0.525770
     10 O2          6.5370   -2.1190   -2.1920 o         1 MOL     -0.422169
     11 C5          8.2220    0.1240   -2.7450 c3        1 MOL     -0.329124
     12 C6          9.5500   -0.6040   -2.9990 c         1 MOL      0.812260
     13 O3         10.1540   -0.3720   -4.0380 o         1 MOL     -0.653309
     14 O4         10.0610   -1.3570   -2.1750 o         1 MOL     -0.653309
     15 H4          9.5210    0.1800   -0.4680 hn        1 MOL      0.281602
     16 H5          6.8060    0.7680   -1.2150 h1        1 MOL      0.190102
     17 H6          8.4430    1.1970   -2.7490 hc        1 MOL      0.101667
     18 H7          7.4650    0.0060   -3.5100 hc        1 MOL      0.101667
     19 N2          6.6220   -1.8990    0.0240 n         1 MOL     -0.371776
     20 C7          6.2040   -3.3260    0.3650 c3        1 MOL      0.014131
     21 C8          4.7150   -3.6840   -0.0130 c         1 MOL      0.523724
     22 O5          4.5410   -4.6490   -0.7420 o         1 MOL     -0.551022
     23 C9          6.4970   -3.5720    1.8320 c3        1 MOL     -0.080823
     24 C10         6.7280   -5.0270    2.1920 c3        1 MOL     -0.003473
     25 C11         7.1970   -5.2650    3.6600 c3        1 MOL     -0.124895
     26 C12         8.6370   -4.9250    3.9200 c3        1 MOL      0.122540
     27 N3          9.1240   -4.9400    5.3500 n4        1 MOL     -0.243823
     28 H8          6.5140   -1.2540    0.7890 hn        1 MOL      0.183342
     29 H9          6.7940   -4.0900   -0.1430 h1        1 MOL      0.090233
     30 H10         5.7770   -3.1010    2.4960 hc        1 MOL      0.036076
     31 H11         7.4290   -3.0530    2.0600 hc        1 MOL      0.036076
     32 H12         7.5160   -5.5030    1.6010 hc        1 MOL      0.052367
     33 H13         5.7630   -5.4980    2.0300 hc        1 MOL      0.052367
     34 H14         7.0420   -6.3230    3.8670 hc        1 MOL      0.041853
     35 H15         6.6700   -4.5300    4.2750 hc        1 MOL      0.041853
     36 H16         8.9180   -4.0490    3.3300 hx        1 MOL      0.051638
     37 H17         9.1040   -5.7990    3.4510 hx        1 MOL      0.051638
     38 H18        10.1240   -4.8630    5.3880 hn        1 MOL      0.251562
     39 H19         8.6430   -4.3110    5.9780 hn        1 MOL      0.251562
     40 H20         8.9050   -5.8740    5.6850 hn        1 MOL      0.251562
     41 N4          3.6940   -2.9330    0.3190 n         1 MOL     -0.450051
     42 C13         3.6810   -1.6630    1.0310 c3        1 MOL      0.193181
     43 C14         3.8410   -0.3320    0.1720 c         1 MOL      0.245675
     44 O6          4.0170   -0.4180   -1.0690 o         1 MOL     -0.390923
     45 C15         2.4250   -1.6710    1.8450 c3        1 MOL     -0.444256
     46 C16         1.1520   -1.8140    0.9860 c         1 MOL      0.848494
     47 O7          1.0880   -1.2180   -0.0830 o         1 MOL     -0.711324
     48 O8          0.2850   -2.5670    1.4910 o         1 MOL     -0.711324
     49 H21         2.8310   -3.2250   -0.1290 hn        1 MOL      0.358244
     50 H22         4.5120   -1.5880    1.7270 h1        1 MOL      0.062703
     51 H23         2.4840   -0.8060    2.5060 hc        1 MOL      0.095457
     52 H24         2.3850   -2.4840    2.5670 hc        1 MOL      0.095457
     53 N5          3.9180    0.7220    0.8950 n         1 MOL     -0.420565
     54 C17         4.2290    2.0130    0.3070 c3        1 MOL      0.061160
     55 C18         3.0210    2.7100   -0.2630 c         1 MOL      0.595983
     56 O9          1.9080    2.1880   -0.1980 o         1 MOL     -0.537892
     57 H25         3.7850    0.6090    1.8920 hn        1 MOL      0.316335
     58 H26         5.1370    2.0760   -0.2920 h1        1 MOL      0.063251
     59 H27         4.4730    2.7080    1.1130 h1        1 MOL      0.063251
     60 N6          3.2220    3.9190   -0.8560 n         1 MOL     -0.658602
     61 C19         2.2770    4.7050   -1.6560 c3        1 MOL      0.468611
     62 C20         2.5550    6.2300   -1.6480 c         1 MOL      0.374323
     63 O10         3.6690    6.6790   -1.5030 o         1 MOL     -0.522981
     64 C21         2.2620    4.2800   -3.1300 c3        1 MOL     -0.426869
     65 C22         1.5940    2.8980   -3.3180 c         1 MOL      0.724839
     66 O11         0.4390    2.7050   -2.9120 o         1 MOL     -0.650641
     67 O12         2.1100    2.0660   -4.0400 o         1 MOL     -0.650641
     68 H28         4.1330    4.3410   -0.7840 hn        1 MOL      0.305516
     69 H29         1.2820    4.5520   -1.2350 h1        1 MOL      0.096624
     70 H30         3.2940    4.3890   -3.4650 hc        1 MOL      0.112642
     71 H31         1.6290    4.9770   -3.6600 hc        1 MOL      0.112642
     72 N7          1.5920    7.1100   -1.9220 n         1 MOL     -0.405705
     73 C23         0.1750    6.9080   -2.1200 c3        1 MOL     -0.107400
     74 C24        -0.6450    6.5820   -0.9130 c         1 MOL      0.639701
     75 O13        -0.4930    7.1320    0.1270 o         1 MOL     -0.546475
     76 H32         1.9540    8.0470   -1.8500 hn        1 MOL      0.319044
     77 H33        -0.0360    6.1100   -2.8440 h1        1 MOL      0.076118
     78 H34        -0.2560    7.8420   -2.4700 h1        1 MOL      0.076118
     79 N8         -1.4330    5.4930   -1.0000 n         1 MOL     -0.617637
     80 C25        -2.2980    4.9270    0.0860 c3        1 MOL      0.051092
     81 C26        -1.6200    3.6570    0.6340 c         1 MOL      1.012704
     82 O14        -1.0290    2.9070   -0.1920 o         1 MOL     -0.849006
     83 C27        -3.7410    4.5910   -0.3220 c3        1 MOL      0.263808
     84 C28        -4.5560    4.2270    0.9200 c3        1 MOL     -0.215000
     85 O15        -3.8310    3.3910   -1.1520 oh        1 MOL     -0.601106
     86 H35        -1.5720    5.0200   -1.8720 hn        1 MOL      0.294923
     87 H36        -2.3820    5.5600    0.9640 h1        1 MOL      0.041695
     88 H37        -4.2790    5.4230   -0.7920 h1        1 MOL      0.029219
     89 H38        -4.3880    3.7200   -1.8570 ho        1 MOL      0.408139
     90 H39        -5.5650    3.8850    0.6600 hc        1 MOL      0.043366
     91 H40        -4.0140    3.4110    1.4010 hc        1 MOL      0.043366
     92 H41        -4.5060    5.0320    1.6510 hc        1 MOL      0.043366
     93 N9         -1.6020    3.5180    1.9880 n         1 MOL     -0.535856
     94 C29        -1.0080    2.4830    2.8150 c3        1 MOL     -0.039085
     95 C30        -1.4490    1.0860    2.3620 c         1 MOL      0.584965
     96 O16        -1.0760    0.6260    1.2500 o         1 MOL     -0.600852
     97 C31         0.4700    2.6090    3.1720 c3        1 MOL      0.117136
     98 C32         0.7960    4.0090    3.5710 c3        1 MOL     -0.261555
     99 C33         0.9040    1.6110    4.2810 c3        1 MOL     -0.476257
    100 C34         1.0650    5.0600    2.4200 c3        1 MOL     -0.026912
    101 H42        -2.0390    4.2750    2.4900 hn        1 MOL      0.291202
    102 H43        -1.5250    2.6060    3.7630 h1        1 MOL      0.047304
    103 H44         1.0540    2.3590    2.2930 hc        1 MOL      0.076469
    104 H45         1.7000    4.0750    4.1840 hc        1 MOL      0.093055
    105 H46         0.0570    4.4140    4.2640 hc        1 MOL      0.093055
    106 H47         0.3190    1.8280    5.1720 hc        1 MOL      0.123954
    107 H48         0.7950    0.5940    3.9040 hc        1 MOL      0.123954
    108 H49         1.9260    1.8390    4.5910 hc        1 MOL      0.123954
    109 H50         1.4030    5.9630    2.9360 hc        1 MOL      0.010203
    110 H51         1.6660    4.6220    1.6240 hc        1 MOL      0.010203
    111 H52         0.1430    5.3100    1.8950 hc        1 MOL      0.010203
    112 N10        -2.1470    0.4060    3.2710 n         1 MOL     -0.465608
    113 C35        -2.6950   -0.9280    3.0990 c3        1 MOL      0.053223
    114 C36        -4.1850   -1.1220    3.0710 c         1 MOL      0.535280
    115 O17        -4.7020   -2.2510    3.2860 o         1 MOL     -0.569942
    116 C37        -2.0500   -1.8550    4.1610 c3        1 MOL      0.511098
    117 C38        -2.2870   -1.4310    5.6150 c3        1 MOL     -0.178792
    118 O18        -0.6570   -1.8800    3.9670 oh        1 MOL     -0.676174
    119 H53        -2.4360    0.8760    4.1130 hn        1 MOL      0.290559
    120 H54        -2.4060   -1.4400    2.1760 h1        1 MOL      0.016493
    121 H55        -2.5030   -2.8360    4.0230 h1        1 MOL     -0.041371
    122 H56        -0.5030   -1.8010    3.0290 ho        1 MOL      0.451534
    123 H57        -1.7250   -2.0230    6.3370 hc        1 MOL      0.025431
    124 H58        -2.1080   -0.3570    5.6940 hc        1 MOL      0.025431
    125 H59        -3.3320   -1.4590    5.9110 hc        1 MOL      0.025431
    126 N11        -4.9850   -0.0640    2.9150 n         1 MOL     -0.437162
    127 C39        -6.4870   -0.1150    2.6540 c3        1 MOL     -0.004290
    128 C40        -6.6160   -0.5580    1.2240 c         1 MOL      0.602943
    129 O19        -6.9270    0.3210    0.3840 o         1 MOL     -0.529461
    130 C41        -7.1050    1.3040    2.9140 c3        1 MOL      0.451861
    131 C42        -8.5910    1.3110    2.7950 c3        1 MOL     -0.600237
    132 O20        -6.7470    1.8150    4.1530 oh        1 MOL     -0.675272
    133 H60        -4.5500    0.8510    2.9060 hn        1 MOL      0.261818
    134 H61        -6.9640   -0.8630    3.2860 h1        1 MOL      0.076830
    135 H62        -6.7220    1.9850    2.1600 h1        1 MOL      0.032816
    136 H63        -7.5170    1.9060    4.7190 ho        1 MOL      0.421608
    137 H64        -8.9850    2.2690    2.4690 hc        1 MOL      0.151229
    138 H65        -8.9020    0.7230    1.9300 hc        1 MOL      0.151229
    139 H66        -9.1080    0.8740    3.6530 hc        1 MOL      0.151229
    140 N12        -6.5780   -1.9060    0.9670 n         1 MOL     -0.664557
    141 C43        -6.4900   -2.4840   -0.4130 c3        1 MOL      0.363815
    142 C44        -5.3020   -1.9730   -1.2800 c         1 MOL      0.368537
    143 O21        -4.9840   -0.8040   -1.1160 o         1 MOL     -0.461814
    144 C45        -7.9060   -2.4220   -1.0570 c3        1 MOL     -0.536682
    145 C46        -9.1760   -2.6840   -0.1790 c3        1 MOL      0.247887
    146 C47       -10.4050   -2.4100   -1.1120 c3        1 MOL      0.002848
    147 C48       -11.6330   -2.7900   -0.3290 c3        1 MOL      0.036003
    148 N13       -12.8410   -2.1880   -0.9580 n4        1 MOL     -0.205786
    149 H67        -6.3230   -2.5670    1.6760 hn        1 MOL      0.337568
    150 H68        -6.2560   -3.5430   -0.3500 h1        1 MOL      0.034248
    151 H69        -7.9080   -3.2100   -1.8100 hc        1 MOL      0.137529
    152 H70        -8.0970   -1.4460   -1.4920 hc        1 MOL      0.137529
    153 H71        -9.1660   -2.0200    0.6940 hc        1 MOL     -0.033472
    154 H72        -9.2710   -3.7380    0.1080 hc        1 MOL     -0.033472
    155 H73       -10.3220   -3.0380   -1.9980 hc        1 MOL      0.031941
    156 H74       -10.3750   -1.3430   -1.3270 hc        1 MOL      0.031941
    157 H75       -11.5590   -2.4250    0.6990 hx        1 MOL      0.052781
    158 H76       -11.6640   -3.8730   -0.3390 hx        1 MOL      0.052781
    159 H77       -12.8650   -2.4670   -1.9310 hn        1 MOL      0.204099
    160 H78       -13.6490   -2.4280   -0.4060 hn        1 MOL      0.204099
    161 H79       -12.7440   -1.1860   -0.8560 hn        1 MOL      0.204099
    162 N14        -4.5840   -2.7870   -2.0230 n         1 MOL     -0.334528
    163 C49        -3.2720   -2.6120   -2.6850 c3        1 MOL      0.090877
    164 C50        -2.1380   -2.3180   -1.7650 c         1 MOL      0.372187
    165 O22        -1.3430   -1.5140   -2.1940 o         1 MOL     -0.561100
    166 C51        -2.9190   -3.9020   -3.4820 c3        1 MOL     -0.182987
    167 C52        -3.7370   -4.0530   -4.7780 c3        1 MOL     -0.390142
    168 C53        -3.2650   -5.3280   -5.4590 c         1 MOL      0.779429
    169 O23        -2.1360   -5.3840   -5.9460 o         1 MOL     -0.654417
    170 O24        -4.0010   -6.3230   -5.5720 o         1 MOL     -0.654417
    171 H80        -5.0620   -3.6730   -2.0750 hn        1 MOL      0.249503
    172 H81        -3.4120   -1.7700   -3.3540 h1        1 MOL      0.064071
    173 H82        -2.8160   -4.7950   -2.8690 hc        1 MOL      0.142632
    174 H83        -1.8820   -3.7690   -3.8000 hc        1 MOL      0.142632
    175 H84        -3.5430   -3.2310   -5.4570 hc        1 MOL      0.091434
    176 H85        -4.8000   -4.1130   -4.5020 hc        1 MOL      0.091434
    177 N15        -1.9750   -2.9070   -0.5810 n         1 MOL     -0.198659
    178 C54        -2.3860   -4.3360   -0.2060 c3        1 MOL     -0.014824
    179 H86        -2.0870   -5.0200   -1.0000 h1        1 MOL      0.032734
    180 H87        -1.8950   -4.6230    0.7240 h1        1 MOL      0.032734
    181 H88        -3.4670   -4.3820   -0.0750 h1        1 MOL      0.032734
    182 H89        -1.2670   -2.4930    0.0100 hn        1 MOL      0.221889
    183 Ca1        -0.1180    0.7260   -1.4100 Ca        1 MOL      1.806351
    184 O25         1.1570   -0.2500   -3.7310 oh        1 MOL     -0.843824
    185 O26        -2.8240    0.6140   -1.2950 oh        1 MOL     -0.843824
    186 H90         0.8090   -0.7380   -4.4770 ho        1 MOL      0.399853
    187 H91        -3.0750    1.5280   -1.1110 ho        1 MOL      0.399853
    188 H92         1.4520    0.5820   -4.1050 ho        1 MOL      0.399853
    189 H93        -3.6340    0.1260   -1.2190 ho        1 MOL      0.399853
    190 O27        -1.7730    0.6690   -4.1690 oh        1 MOL     -0.843824
    191 H94        -1.4380   -0.0980   -4.6230 ho        1 MOL      0.399853
    192 H95        -2.6770    0.4430   -3.9560 ho        1 MOL      0.399853
@<TRIPOS>BOND
     1    1    2 1   
     2    1    4 1   
     3    1    5 1   
     4    1    6 1   
     5    2    3 2   
     6    2    7 1   
     7    7    8 1   
     8    7   15 1   
     9    8    9 1   
    10    8   11 1   
    11    8   16 1   
    12    9   10 2   
    13    9   19 1   
    14   11   12 1   
    15   11   17 1   
    16   11   18 1   
    17   12   13 1   
    18   12   14 1   
    19   19   20 1   
    20   19   28 1   
    21   20   21 1   
    22   20   23 1   
    23   20   29 1   
    24   21   22 2   
    25   21   41 1   
    26   23   24 1   
    27   23   30 1   
    28   23   31 1   
    29   24   25 1   
    30   24   32 1   
    31   24   33 1   
    32   25   26 1   
    33   25   34 1   
    34   25   35 1   
    35   26   27 1   
    36   26   36 1   
    37   26   37 1   
    38   27   38 1   
    39   27   39 1   
    40   27   40 1   
    41   41   42 1   
    42   41   49 1   
    43   42   43 1   
    44   42   45 1   
    45   42   50 1   
    46   43   44 2   
    47   43   53 1   
    48   45   46 1   
    49   45   51 1   
    50   45   52 1   
    51   46   47 1   
    52   46   48 1   
    53   53   54 1   
    54   53   57 1   
    55   54   55 1   
    56   54   58 1   
    57   54   59 1   
    58   55   56 2   
    59   55   60 1   
    60   60   61 1   
    61   60   68 1   
    62   61   62 1   
    63   61   64 1   
    64   61   69 1   
    65   62   63 2   
    66   62   72 1   
    67   64   65 1   
    68   64   70 1   
    69   64   71 1   
    70   65   66 1   
    71   65   67 1   
    72   72   73 1   
    73   72   76 1   
    74   73   74 1   
    75   73   77 1   
    76   73   78 1   
    77   74   75 2   
    78   74   79 1   
    79   79   80 1   
    80   79   86 1   
    81   80   81 1   
    82   80   83 1   
    83   80   87 1   
    84   81   82 2   
    85   81   93 1   
    86   83   84 1   
    87   83   85 1   
    88   83   88 1   
    89   84   90 1   
    90   84   91 1   
    91   84   92 1   
    92   85   89 1   
    93   93   94 1   
    94   93  101 1   
    95   94   95 1   
    96   94   97 1   
    97   94  102 1   
    98   95   96 2   
    99   95  112 1   
   100   97   98 1   
   101   97   99 1   
   102   97  103 1   
   103   98  100 1   
   104   98  104 1   
   105   98  105 1   
   106   99  106 1   
   107   99  107 1   
   108   99  108 1   
   109  100  109 1   
   110  100  110 1   
   111  100  111 1   
   112  112  113 1   
   113  112  119 1   
   114  113  114 1   
   115  113  116 1   
   116  113  120 1   
   117  114  115 2   
   118  114  126 1   
   119  116  117 1   
   120  116  118 1   
   121  116  121 1   
   122  117  123 1   
   123  117  124 1   
   124  117  125 1   
   125  118  122 1   
   126  126  127 1   
   127  126  133 1   
   128  127  128 1   
   129  127  130 1   
   130  127  134 1   
   131  128  129 2   
   132  128  140 1   
   133  130  131 1   
   134  130  132 1   
   135  130  135 1   
   136  131  137 1   
   137  131  138 1   
   138  131  139 1   
   139  132  136 1   
   140  140  141 1   
   141  140  149 1   
   142  141  142 1   
   143  141  144 1   
   144  141  150 1   
   145  142  143 2   
   146  142  162 1   
   147  144  145 1   
   148  144  151 1   
   149  144  152 1   
   150  145  146 1   
   151  145  153 1   
   152  145  154 1   
   153  146  147 1   
   154  146  155 1   
   155  146  156 1   
   156  147  148 1   
   157  147  157 1   
   158  147  158 1   
   159  148  159 1   
   160  148  160 1   
   161  148  161 1   
   162  162  163 1   
   163  162  171 1   
   164  163  164 1   
   165  163  166 1   
   166  163  172 1   
   167  164  165 2   
   168  164  177 1   
   169  166  167 1   
   170  166  173 1   
   171  166  174 1   
   172  167  168 1   
   173  167  175 1   
   174  167  176 1   
   175  168  169 1   
   176  168  170 1   
   177  177  178 1   
   178  177  182 1   
   179  178  179 1   
   180  178  180 1   
   181  178  181 1   
   182  184  186 1   
   183  184  188 1   
   184  185  187 1   
   185  185  189 1   
   186  190  191 1   
   187  190  192 1   
@<TRIPOS>SUBSTRUCTURE
     1 MOL         1 TEMP              0 ****  ****    0 ROOT
