@<TRIPOS>MOLECULE
MOL
  181   177     1     0     0
SMALL
resp


@<TRIPOS>ATOM
      1 C1          9.6860    6.9530    0.8900 c3        1 MOL     -0.279311
      2 C2          8.7340    5.7600    1.2550 c         1 MOL      0.700936
      3 O1          7.9940    5.8910    2.2150 o         1 MOL     -0.579858
      4 H1          9.1140    7.7330    0.3860 hc        1 MOL      0.063779
      5 H2         10.1280    7.3580    1.8000 hc        1 MOL      0.063779
      6 H3         10.4770    6.5990    0.2280 hc        1 MOL      0.063779
      7 N1          8.7090    4.6220    0.5620 n         1 MOL     -0.696054
      8 C3          9.5270    4.2120   -0.6040 c3        1 MOL      0.465209
      9 C4         10.5560    3.1250   -0.1660 c         1 MOL      0.582608
     10 O2         10.5380    2.7580    0.9700 o         1 MOL     -0.517050
     11 C5          8.7210    3.8190   -1.8190 c3        1 MOL     -0.328384
     12 C6          7.9980    2.4660   -1.6980 c         1 MOL      0.681653
     13 O3          6.7980    2.3630   -1.4510 o         1 MOL     -0.679859
     14 O4          8.6420    1.4100   -1.8170 o         1 MOL     -0.679859
     15 H4          8.1060    3.9170    0.9510 hn        1 MOL      0.398239
     16 H5         10.1680    5.0590   -0.8380 h1        1 MOL     -0.073626
     17 H6          9.3380    3.8550   -2.7210 hc        1 MOL      0.047043
     18 H7          7.8820    4.4970   -2.0030 hc        1 MOL      0.047043
     19 N2         11.4160    2.6160   -1.0780 n         1 MOL     -0.710069
     20 C7         12.3630    1.5520   -0.8360 c3        1 MOL      0.367461
     21 C8         11.8050    0.3270   -0.0240 c         1 MOL      0.285511
     22 O5         12.7180   -0.4000    0.4270 o         1 MOL     -0.557398
     23 C9         13.6950    2.1160   -0.3030 c3        1 MOL     -0.455803
     24 H8         11.4160    2.9330   -2.0340 hn        1 MOL      0.330428
     25 H9         12.3850    1.0980   -1.8300 h1        1 MOL      0.007144
     26 H10        14.5060    1.3850   -0.3950 hc        1 MOL      0.120369
     27 H11        13.9520    2.9880   -0.8980 hc        1 MOL      0.120369
     28 H12        13.6750    2.2980    0.7740 hc        1 MOL      0.120369
     29 N3         10.5410    0.0990    0.0750 n         1 MOL     -0.022671
     30 C10         9.9610   -1.0160    0.6330 c3        1 MOL      0.145505
     31 C11         9.1120   -1.8270   -0.2640 c         1 MOL      0.457926
     32 O6          8.6400   -1.4690   -1.3400 o         1 MOL     -0.605328
     33 C12         9.1320   -0.5790    1.8630 c3        1 MOL     -0.097233
     34 C13         7.9290    0.2780    1.6030 c         1 MOL      0.671288
     35 O7          7.4310    1.0490    2.4310 o         1 MOL     -0.679865
     36 O8          7.3910    0.1470    0.4870 o         1 MOL     -0.679865
     37 H13         9.9830    0.7380   -0.4740 hn        1 MOL      0.110103
     38 H14        10.7760   -1.6780    0.9520 h1        1 MOL     -0.009792
     39 H15         9.8010   -0.2630    2.6630 hc        1 MOL      0.016302
     40 H16         8.7670   -1.4760    2.3640 hc        1 MOL      0.016302
     41 N4          8.7420   -3.0360    0.1730 n         1 MOL     -0.436998
     42 C14         7.7570   -3.9290   -0.4610 c3        1 MOL     -0.030081
     43 C15         6.2680   -3.5190   -0.3800 c         1 MOL      0.686671
     44 O9          5.9080   -2.3650   -0.1460 o         1 MOL     -0.510933
     45 H17         9.0000   -3.3240    1.1120 hn        1 MOL      0.281436
     46 H18         7.8740   -4.9190   -0.0330 h1        1 MOL      0.064770
     47 H19         8.0150   -4.0430   -1.5150 h1        1 MOL      0.064770
     48 N5          5.3870   -4.4960   -0.5170 n         1 MOL     -0.708758
     49 C16         3.9360   -4.2760   -0.5120 c3        1 MOL      0.148076
     50 C17         3.3900   -3.7320    0.8040 c         1 MOL      0.542647
     51 O10         4.0340   -3.9880    1.8490 o         1 MOL     -0.497489
     52 C18         3.2130   -5.5830   -0.9560 c3        1 MOL     -0.118574
     53 C19         3.6130   -6.0210   -2.3900 c         1 MOL      0.721726
     54 N6          2.9590   -7.1070   -2.8610 n         1 MOL     -0.881636
     55 O11         4.4620   -5.5010   -3.0180 o         1 MOL     -0.572627
     56 H20         5.6470   -5.4650   -0.3760 hn        1 MOL      0.343080
     57 H21         3.7220   -3.5040   -1.2540 h1        1 MOL      0.008665
     58 H22         2.1510   -5.3390   -0.9560 hc        1 MOL      0.052471
     59 H23         3.2150   -6.4500   -0.2950 hc        1 MOL      0.052471
     60 H24         2.3070   -7.6020   -2.2650 hn        1 MOL      0.400483
     61 H25         3.1990   -7.2980   -3.8190 hn        1 MOL      0.400483
     62 N7          2.2430   -3.0320    0.7030 n         1 MOL     -0.519343
     63 C20         1.4710   -2.5130    1.8130 c3        1 MOL      0.071112
     64 C21         1.6410   -1.0340    2.0430 c         1 MOL      0.623141
     65 O12         2.3700   -0.3480    1.3300 o         1 MOL     -0.540947
     66 H26         1.9780   -2.6510   -0.1980 hn        1 MOL      0.318170
     67 H27         1.8600   -3.0200    2.6890 h1        1 MOL      0.078999
     68 H28         0.4160   -2.7810    1.7240 h1        1 MOL      0.078999
     69 N8          1.0090   -0.4050    2.9970 n         1 MOL     -0.486361
     70 C22         0.0900   -1.1390    3.9390 c3        1 MOL     -0.208609
     71 C23        -1.3150   -1.2300    3.4400 c         1 MOL      0.558257
     72 O13        -2.0770   -2.0920    3.8850 o         1 MOL     -0.577383
     73 C24         0.0890   -0.5120    5.4140 c3        1 MOL      0.357836
     74 C25         1.4070   -0.8160    6.1180 c3        1 MOL     -0.379999
     75 O14        -0.0750    0.9200    5.4650 oh        1 MOL     -0.592715
     76 H29         0.9560    0.5950    3.1290 hn        1 MOL      0.326306
     77 H30         0.4130   -2.1740    4.0720 h1        1 MOL      0.103011
     78 H31        -0.6830   -1.0030    6.0190 h1        1 MOL      0.063251
     79 H32         0.7730    1.3280    5.2860 ho        1 MOL      0.395279
     80 H33         1.7280   -1.8570    6.1900 hc        1 MOL      0.100992
     81 H34         2.2620   -0.3020    5.6740 hc        1 MOL      0.100992
     82 H35         1.3830   -0.4150    7.1330 hc        1 MOL      0.100992
     83 N9         -1.7970   -0.4370    2.4260 n         1 MOL     -0.265760
     84 C26        -3.1980   -0.2530    2.0420 c3        1 MOL     -0.023005
     85 C27        -3.3560   -0.3350    0.5020 c         1 MOL      0.469737
     86 O15        -2.4780    0.0410   -0.2100 o         1 MOL     -0.544672
     87 C28        -3.8420    1.0330    2.6200 c3        1 MOL      0.123724
     88 C29        -3.1540    2.3020    2.0910 c3        1 MOL     -0.125786
     89 C30        -3.8280    1.0170    4.1480 c3        1 MOL     -0.286185
     90 C31        -3.8900    3.5200    2.5130 c3        1 MOL     -0.146091
     91 H36        -1.1330    0.1570    1.9350 hn        1 MOL      0.163535
     92 H37        -3.7710   -1.0860    2.4600 h1        1 MOL      0.152005
     93 H38        -4.9080    0.9690    2.4050 hc        1 MOL      0.031299
     94 H39        -3.2660    2.2220    1.0070 hc        1 MOL      0.064189
     95 H40        -2.1240    2.4320    2.4230 hc        1 MOL      0.064189
     96 H41        -4.6090    1.6730    4.5210 hc        1 MOL      0.066066
     97 H42        -4.0950    0.0070    4.4630 hc        1 MOL      0.066066
     98 H43        -2.8220    1.3150    4.4690 hc        1 MOL      0.066066
     99 H44        -4.9260    3.6470    2.2090 hc        1 MOL      0.038917
    100 H45        -3.8910    3.7150    3.5900 hc        1 MOL      0.038917
    101 H46        -3.4430    4.3140    1.9180 hc        1 MOL      0.038917
    102 N10        -4.4670   -0.8590    0.0070 n         1 MOL     -0.346533
    103 C32        -5.5200   -1.6230    0.6280 c3        1 MOL      0.055935
    104 C33        -6.8900   -1.3680    0.0460 c         1 MOL      0.521729
    105 O16        -7.0900   -1.1170   -1.1670 o         1 MOL     -0.473685
    106 C34        -5.1710   -3.1510    0.6040 c3        1 MOL     -0.172264
    107 C35        -4.8030   -3.8240   -0.7510 c         1 MOL      0.604375
    108 O17        -3.6830   -4.4760   -0.7570 o         1 MOL     -0.687987
    109 O18        -5.4670   -3.6690   -1.8290 o         1 MOL     -0.687987
    110 H47        -4.6420   -0.7010   -0.9800 hn        1 MOL      0.349023
    111 H48        -5.6000   -1.3170    1.6710 h1        1 MOL     -0.015119
    112 H49        -6.0610   -3.6790    0.9600 hc        1 MOL      0.015711
    113 H50        -4.2940   -3.3450    1.2240 hc        1 MOL      0.015711
    114 N11        -7.9380   -1.5220    0.8600 n         1 MOL     -0.649232
    115 C36        -9.3250   -1.1450    0.5470 c3        1 MOL      0.798139
    116 C37        -9.7930    0.0800    1.3620 c         1 MOL      0.075628
    117 O19        -9.4110    0.2550    2.5190 o         1 MOL     -0.468142
    118 C38       -10.2700   -2.3530    0.7260 c3        1 MOL     -0.250046
    119 C39       -11.6420   -2.1290    0.0820 ca        1 MOL      0.184365
    120 C40       -12.7670   -1.8530    0.8740 ca        1 MOL     -0.225812
    121 C41       -11.8890   -2.2850   -1.2880 ca        1 MOL     -0.225812
    122 C42       -14.1070   -1.6820    0.3910 ca        1 MOL     -0.100217
    123 C43       -13.1710   -2.0640   -1.8240 ca        1 MOL     -0.100217
    124 C44       -14.3200   -1.7680   -1.0030 ca        1 MOL     -0.165549
    125 H51        -7.6700   -1.8830    1.7700 hn        1 MOL      0.293635
    126 H52        -9.3330   -0.8580   -0.5030 h1        1 MOL     -0.140988
    127 H53       -10.3490   -2.5380    1.8000 hc        1 MOL      0.053880
    128 H54        -9.8340   -3.2600    0.3090 hc        1 MOL      0.053880
    129 H55       -12.5470   -1.7760    1.9310 ha        1 MOL      0.141378
    130 H56       -11.1210   -2.6080   -1.9800 ha        1 MOL      0.141378
    131 H57       -14.9040   -1.4530    1.0910 ha        1 MOL      0.111653
    132 H58       -13.3460   -2.1680   -2.8870 ha        1 MOL      0.111653
    133 H59       -15.2610   -1.6030   -1.4970 ha        1 MOL      0.124027
    134 N12       -10.6120    1.0710    0.7200 n         1 MOL     -0.017085
    135 C45       -10.9810    1.1010   -0.7130 c3        1 MOL     -0.040786
    136 C46        -9.9620    1.8220   -1.6260 c         1 MOL      0.415675
    137 O20       -10.3410    2.4830   -2.5910 o         1 MOL     -0.508770
    138 C47       -12.3040    1.8210   -0.6370 c3        1 MOL      0.045530
    139 C48       -12.0390    2.9840    0.4090 c3        1 MOL     -0.073109
    140 C49       -11.2440    2.1930    1.4560 c3        1 MOL     -0.211793
    141 H60       -11.1970    0.1450   -1.1990 h1        1 MOL      0.130855
    142 H61       -12.6850    2.2400   -1.5720 hc        1 MOL     -0.013275
    143 H62       -13.0350    1.0740   -0.3190 hc        1 MOL     -0.013275
    144 H63       -11.3730    3.7390    0.0000 hc        1 MOL      0.043323
    145 H64       -12.9120    3.3910    0.9210 hc        1 MOL      0.043323
    146 H65       -10.5100    2.8940    1.8320 h1        1 MOL      0.102328
    147 H66       -12.0200    1.8990    2.1630 h1        1 MOL      0.102328
    148 N13        -8.6970    1.8220   -1.2180 n         1 MOL     -0.365489
    149 C50        -7.8260    2.8940   -1.6180 c3        1 MOL      0.165947
    150 C51        -7.6930    3.9560   -0.4720 c         1 MOL      0.542001
    151 O21        -7.7490    3.5820    0.6500 o         1 MOL     -0.578784
    152 C52        -6.4810    2.3400   -1.8990 c3        1 MOL      0.120687
    153 C53        -6.5060    1.6720   -3.2560 c3        1 MOL     -0.097964
    154 C54        -6.3090    2.6150   -4.5350 c         1 MOL      0.619630
    155 O22        -7.2250    3.4910   -4.7560 o         1 MOL     -0.686179
    156 O23        -5.4040    2.3240   -5.3630 o         1 MOL     -0.686179
    157 H67        -8.4640    1.3090   -0.3860 hn        1 MOL      0.302304
    158 H68        -8.1320    3.3940   -2.5370 h1        1 MOL      0.049302
    159 H69        -6.3080    1.5400   -1.1810 hc        1 MOL     -0.061107
    160 H70        -5.6930    3.0820   -1.8030 hc        1 MOL     -0.061107
    161 H71        -7.4040    1.0740   -3.3810 hc        1 MOL     -0.006074
    162 H72        -5.6330    1.0400   -3.0960 hc        1 MOL     -0.006074
    163 N14        -7.4240    5.2320   -0.8160 n         1 MOL     -0.483343
    164 C55        -7.0340    5.8210   -2.1320 c3        1 MOL      0.151736
    165 H73        -7.6850    6.6640   -2.3600 h1        1 MOL     -0.002181
    166 H74        -6.0000    6.1630   -2.0860 h1        1 MOL     -0.002181
    167 H75        -7.1330    5.0660   -2.9120 h1        1 MOL     -0.002181
    168 H76        -7.6250    5.8920   -0.0780 hn        1 MOL      0.260085
    169 Ca1         6.4780   -0.3320   -1.8410 Ca        1 MOL      1.708813
    170 O24         5.9970   -2.6830   -3.2460 oh        1 MOL     -0.829174
    171 H77         5.5920   -3.5440   -3.1350 ho        1 MOL      0.410171
    172 H78         6.3330   -2.6850   -4.1400 ho        1 MOL      0.410171
    173 O25         4.4290    0.3730   -3.4150 oh        1 MOL     -0.829174
    174 H79         4.6290    0.0250   -4.2870 ho        1 MOL      0.410171
    175 H80         3.8660    1.1190   -3.5770 ho        1 MOL      0.410171
    176 O26         7.2110    0.3050   -4.3340 oh        1 MOL     -0.829174
    177 H81         7.9700    0.3670   -4.9180 ho        1 MOL      0.410171
    178 H82         6.4530    0.3750   -4.9290 ho        1 MOL      0.410171
    179 O27         3.9960    0.0020   -0.6900 oh        1 MOL     -0.829174
    180 H83         3.1610    0.3010   -1.0350 ho        1 MOL      0.410171
    181 H84         3.7750   -0.4800    0.1040 ho        1 MOL      0.410171
@<TRIPOS>BOND
     1    1    2 1   
     2    1    4 1   
     3    1    5 1   
     4    1    6 1   
     5    2    3 2   
     6    2    7 1   
     7    7    8 1   
     8    7   15 1   
     9    8    9 1   
    10    8   11 1   
    11    8   16 1   
    12    9   10 2   
    13    9   19 1   
    14   11   12 1   
    15   11   17 1   
    16   11   18 1   
    17   12   13 1   
    18   12   14 1   
    19   19   20 1   
    20   19   24 1   
    21   20   21 1   
    22   20   23 1   
    23   20   25 1   
    24   21   22 2   
    25   21   29 1   
    26   23   26 1   
    27   23   27 1   
    28   23   28 1   
    29   29   30 1   
    30   29   37 1   
    31   30   31 1   
    32   30   33 1   
    33   30   38 1   
    34   31   32 2   
    35   31   41 1   
    36   33   34 1   
    37   33   39 1   
    38   33   40 1   
    39   34   35 1   
    40   34   36 1   
    41   41   42 1   
    42   41   45 1   
    43   42   43 1   
    44   42   46 1   
    45   42   47 1   
    46   43   44 2   
    47   43   48 1   
    48   48   49 1   
    49   48   56 1   
    50   49   50 1   
    51   49   52 1   
    52   49   57 1   
    53   50   51 2   
    54   50   62 1   
    55   52   53 1   
    56   52   58 1   
    57   52   59 1   
    58   53   54 1   
    59   53   55 2   
    60   54   60 1   
    61   54   61 1   
    62   62   63 1   
    63   62   66 1   
    64   63   64 1   
    65   63   67 1   
    66   63   68 1   
    67   64   65 2   
    68   64   69 1   
    69   69   70 1   
    70   69   76 1   
    71   70   71 1   
    72   70   73 1   
    73   70   77 1   
    74   71   72 2   
    75   71   83 1   
    76   73   74 1   
    77   73   75 1   
    78   73   78 1   
    79   74   80 1   
    80   74   81 1   
    81   74   82 1   
    82   75   79 1   
    83   83   84 1   
    84   83   91 1   
    85   84   85 1   
    86   84   87 1   
    87   84   92 1   
    88   85   86 2   
    89   85  102 1   
    90   87   88 1   
    91   87   89 1   
    92   87   93 1   
    93   88   90 1   
    94   88   94 1   
    95   88   95 1   
    96   89   96 1   
    97   89   97 1   
    98   89   98 1   
    99   90   99 1   
   100   90  100 1   
   101   90  101 1   
   102  102  103 1   
   103  102  110 1   
   104  103  104 1   
   105  103  106 1   
   106  103  111 1   
   107  104  105 2   
   108  104  114 1   
   109  106  107 1   
   110  106  112 1   
   111  106  113 1   
   112  107  108 1   
   113  107  109 1   
   114  114  115 1   
   115  114  125 1   
   116  115  116 1   
   117  115  118 1   
   118  115  126 1   
   119  116  117 2   
   120  116  134 1   
   121  118  119 1   
   122  118  127 1   
   123  118  128 1   
   124  119  120 ar  
   125  119  121 ar  
   126  120  122 ar  
   127  120  129 1   
   128  121  123 ar  
   129  121  130 1   
   130  122  124 ar  
   131  122  131 1   
   132  123  124 ar  
   133  123  132 1   
   134  124  133 1   
   135  134  135 1   
   136  134  140 1   
   137  135  136 1   
   138  135  138 1   
   139  135  141 1   
   140  136  137 2   
   141  136  148 1   
   142  138  139 1   
   143  138  142 1   
   144  138  143 1   
   145  139  140 1   
   146  139  144 1   
   147  139  145 1   
   148  140  146 1   
   149  140  147 1   
   150  148  149 1   
   151  148  157 1   
   152  149  150 1   
   153  149  152 1   
   154  149  158 1   
   155  150  151 2   
   156  150  163 1   
   157  152  153 1   
   158  152  159 1   
   159  152  160 1   
   160  153  154 1   
   161  153  161 1   
   162  153  162 1   
   163  154  155 1   
   164  154  156 1   
   165  163  164 1   
   166  163  168 1   
   167  164  165 1   
   168  164  166 1   
   169  164  167 1   
   170  170  171 1   
   171  170  172 1   
   172  173  174 1   
   173  173  175 1   
   174  176  177 1   
   175  176  178 1   
   176  179  180 1   
   177  179  181 1   
@<TRIPOS>SUBSTRUCTURE
     1 MOL         1 TEMP              0 ****  ****    0 ROOT
