@<TRIPOS>MOLECULE
MOL
  192   187     1     0     0
SMALL
resp


@<TRIPOS>ATOM
      1 C1         -6.0400   -4.8410    2.7700 c3        1 MOL      0.204652
      2 C2         -4.8300   -4.1450    2.1380 c         1 MOL      0.541929
      3 O1         -4.4130   -3.0890    2.6970 o         1 MOL     -0.508587
      4 H1         -6.9320   -4.6240    2.1820 hc        1 MOL     -0.087878
      5 H2         -5.8720   -5.9180    2.7890 hc        1 MOL     -0.087878
      6 H3         -6.1800   -4.4760    3.7880 hc        1 MOL     -0.087878
      7 N1         -4.2830   -4.7100    1.0400 n         1 MOL     -0.608653
      8 C3         -3.3710   -4.0060    0.1060 c3        1 MOL      0.254230
      9 C4         -1.9520   -3.8220    0.6390 c         1 MOL      0.409854
     10 O2         -1.2370   -2.9960    0.0640 o         1 MOL     -0.518818
     11 C5         -4.0660   -2.7310   -0.4620 c3        1 MOL     -0.497948
     12 C6         -5.5260   -2.8960   -0.7750 c         1 MOL      1.161565
     13 O3         -5.9550   -4.0100   -1.2560 o         1 MOL     -0.891888
     14 O4         -6.4050   -2.0820   -0.4290 o         1 MOL     -0.891888
     15 H4         -4.7030   -5.6070    0.8170 hn        1 MOL      0.320415
     16 H5         -3.3110   -4.7390   -0.6990 h1        1 MOL      0.057283
     17 H6         -3.6240   -2.3330   -1.3760 hc        1 MOL      0.115446
     18 H7         -3.9870   -1.9130    0.2630 hc        1 MOL      0.115446
     19 N2         -1.6380   -4.3530    1.8000 n         1 MOL     -0.278815
     20 C7         -0.2610   -4.5330    2.3240 c3        1 MOL      0.060720
     21 C8          0.4160   -5.7840    1.7950 c         1 MOL      0.382908
     22 O5          0.1720   -6.8400    2.3810 o         1 MOL     -0.568500
     23 C9         -0.3540   -4.5400    3.8920 c3        1 MOL      0.133209
     24 C10        -1.0730   -3.3160    4.4420 c3        1 MOL      0.223883
     25 C11         1.0790   -4.5050    4.4400 c3        1 MOL     -0.073757
     26 C12        -1.3490   -3.5460    5.9280 c3        1 MOL     -0.385118
     27 H8         -2.3490   -4.9430    2.2220 hn        1 MOL      0.170575
     28 H9          0.3670   -3.6990    1.9940 h1        1 MOL      0.067597
     29 H10        -0.8000   -5.4410    4.3250 hc        1 MOL     -0.004646
     30 H11        -1.9910   -3.1570    3.8860 hc        1 MOL     -0.007781
     31 H12        -0.5050   -2.4000    4.2970 hc        1 MOL     -0.007781
     32 H13         1.8310   -5.1860    4.0370 hc        1 MOL      0.006221
     33 H14         1.4680   -3.5000    4.2840 hc        1 MOL      0.006221
     34 H15         1.1250   -4.6690    5.5100 hc        1 MOL      0.006221
     35 H16        -0.4660   -3.7630    6.5260 hc        1 MOL      0.073595
     36 H17        -1.8090   -2.6190    6.2590 hc        1 MOL      0.073595
     37 H18        -2.0950   -4.3360    6.0610 hc        1 MOL      0.073595
     38 N3          1.5720   -5.7360    1.0650 n         1 MOL     -0.251848
     39 C13         2.0850   -4.5620    0.3640 c3        1 MOL      0.002693
     40 C14         2.6260   -5.0410   -1.0270 c         1 MOL      0.541568
     41 O6          2.7570   -6.2760   -1.2750 o         1 MOL     -0.562735
     42 C15         3.3220   -4.0680    1.2040 c3        1 MOL     -0.199381
     43 C16         3.8980   -2.9070    0.4890 c         1 MOL      0.627293
     44 O7          5.1060   -3.0930    0.1790 o         1 MOL     -0.612612
     45 O8          3.2150   -1.9260   -0.0010 o         1 MOL     -0.612612
     46 H19         1.8810   -6.6350    0.7360 hn        1 MOL      0.233084
     47 H20         1.2680   -3.8550    0.2340 h1        1 MOL      0.006320
     48 H21         3.9640   -4.9250    1.3920 hc        1 MOL      0.059029
     49 H22         3.0030   -3.8480    2.2190 hc        1 MOL      0.059029
     50 N4          2.9810   -4.1560   -1.9760 n         1 MOL     -0.438417
     51 C17         3.6580   -4.4390   -3.2880 c3        1 MOL      0.088189
     52 C18         4.7890   -3.5320   -3.7440 c         1 MOL      0.429640
     53 O9          5.0300   -3.5330   -4.9360 o         1 MOL     -0.556970
     54 H23         2.8000   -3.1650   -1.8470 hn        1 MOL      0.302705
     55 H24         2.8480   -4.5510   -4.0080 h1        1 MOL      0.053935
     56 H25         3.9840   -5.4830   -3.3270 h1        1 MOL      0.053935
     57 N5          5.3620   -2.6040   -2.9110 n         1 MOL     -0.306653
     58 C19         6.4000   -1.6610   -3.3650 c3        1 MOL      0.056912
     59 C20         7.6240   -1.4530   -2.4340 c         1 MOL      0.416038
     60 O10         8.7330   -1.1650   -2.8620 o         1 MOL     -0.570646
     61 C21         5.8840   -0.2910   -3.8790 c3        1 MOL     -0.130048
     62 C22         4.9370    0.4700   -2.9250 c         1 MOL      0.702239
     63 O11         5.3490    0.8690   -1.8020 o         1 MOL     -0.648289
     64 O12         3.7820    0.6860   -3.2940 o         1 MOL     -0.648289
     65 H26         5.0520   -2.6140   -1.9430 hn        1 MOL      0.202298
     66 H27         6.8710   -2.1480   -4.2160 h1        1 MOL      0.082397
     67 H28         5.4100   -0.5290   -4.8290 hc        1 MOL      0.019850
     68 H29         6.6710    0.3450   -4.2770 hc        1 MOL      0.019850
     69 N6          7.5110   -1.7720   -1.1410 n         1 MOL     -0.303484
     70 C23         8.4900   -1.4280   -0.1440 c3        1 MOL     -0.015659
     71 C24         8.5040   -0.0080    0.3580 c         1 MOL      0.546585
     72 O13         9.0200    0.1490    1.4360 o         1 MOL     -0.656130
     73 H30         6.5810   -1.9670   -0.7870 hn        1 MOL      0.208925
     74 H31         9.4510   -1.5300   -0.6500 h1        1 MOL      0.051575
     75 H32         8.4110   -2.1360    0.6840 h1        1 MOL      0.051575
     76 N7          7.9070    0.9030   -0.3580 n         1 MOL     -0.045132
     77 C25         7.9520    2.3240   -0.1690 c3        1 MOL      0.055082
     78 C26         7.4480    2.8850    1.1860 c         1 MOL      0.500103
     79 O14         7.7920    3.9750    1.5480 o         1 MOL     -0.529232
     80 C27         9.2000    2.8850   -0.8160 c3        1 MOL     -0.007652
     81 C28         9.4670    2.4660   -2.2320 c3        1 MOL     -0.010307
     82 C29        10.6540    3.1170   -2.8560 c         1 MOL      0.710497
     83 N8         11.2070    2.5470   -3.8560 n         1 MOL     -0.838744
     84 O15        11.2510    4.0460   -2.3800 o         1 MOL     -0.620549
     85 H33         7.2330    0.5960   -1.0550 hn        1 MOL      0.033810
     86 H34         7.1220    2.5920   -0.8330 h1        1 MOL      0.078896
     87 H35        10.1340    2.7250   -0.2670 hc        1 MOL     -0.006986
     88 H36         8.9340    3.9420   -0.8010 hc        1 MOL     -0.006986
     89 H37         8.5610    2.6650   -2.8080 hc        1 MOL      0.000179
     90 H38         9.7090    1.4090   -2.1890 hc        1 MOL      0.000179
     91 H39        10.9490    1.6220   -4.1950 hn        1 MOL      0.356724
     92 H40        12.1060    2.9520   -4.0550 hn        1 MOL      0.356724
     93 N9          6.5730    2.1190    1.8370 n         1 MOL     -0.428107
     94 C30         5.9400    2.4090    3.1780 c3        1 MOL     -0.019675
     95 C31         4.4280    2.4040    3.3180 c         1 MOL      0.566788
     96 O16         3.8850    2.8140    4.3250 o         1 MOL     -0.584980
     97 C32         6.4510    1.2850    4.2150 c3        1 MOL      0.276124
     98 C33         6.2940   -0.1510    3.8040 c3        1 MOL     -0.406439
     99 C34         7.9720    1.6290    4.5110 c3        1 MOL     -0.406439
    100 H41         6.4070    1.2120    1.4060 hn        1 MOL      0.301670
    101 H42         6.3610    3.3070    3.6140 h1        1 MOL      0.082941
    102 H43         5.9620    1.4420    5.1810 hc        1 MOL     -0.025241
    103 H44         5.3840   -0.3800    3.2670 hc        1 MOL      0.099258
    104 H45         7.1170   -0.4070    3.1430 hc        1 MOL      0.099258
    105 H46         6.4300   -0.8510    4.6340 hc        1 MOL      0.099258
    106 H47         8.6920    1.3020    3.7530 hc        1 MOL      0.099258
    107 H48         8.1720    2.6970    4.3800 hc        1 MOL      0.099258
    108 H49         8.2330    1.2200    5.4860 hc        1 MOL      0.099258
    109 N10         3.7310    1.9220    2.2850 n         1 MOL     -0.418479
    110 C35         2.3240    1.7240    2.2480 c3        1 MOL      0.119180
    111 C36         1.6530    2.1310    0.9070 c         1 MOL      0.624988
    112 O17         2.2520    2.3260   -0.1370 o         1 MOL     -0.500204
    113 C37         2.1460    0.1660    2.4950 c3        1 MOL     -0.137512
    114 C38         0.8320   -0.4610    2.0620 c         1 MOL      0.474280
    115 N11         0.7920   -1.1640    0.9600 n         1 MOL     -0.681914
    116 O18        -0.2040   -0.1760    2.6250 o         1 MOL     -0.594456
    117 H50         4.2200    1.5300    1.4950 hn        1 MOL      0.183465
    118 H51         1.9420    2.2940    3.0940 h1        1 MOL      0.082950
    119 H52         2.4660   -0.1730    3.4850 hc        1 MOL      0.062526
    120 H53         2.8270   -0.3870    1.8370 hc        1 MOL      0.062526
    121 H54         1.6190   -1.3340    0.4030 hn        1 MOL      0.370640
    122 H55        -0.0970   -1.5960    0.7860 hn        1 MOL      0.370640
    123 N12         0.3260    2.3290    0.9640 n         1 MOL     -0.781509
    124 C39        -0.5740    2.8400   -0.0640 c3        1 MOL      0.431661
    125 C40        -1.8090    3.5350    0.4740 c         1 MOL      0.492143
    126 O19        -2.3850    2.9940    1.4540 o         1 MOL     -0.550652
    127 C41        -1.0000    1.6130   -0.9260 c3        1 MOL     -0.153389
    128 C42        -1.8460    2.0100   -2.1220 ca        1 MOL      0.096357
    129 C43        -1.4170    3.0380   -3.0000 ca        1 MOL     -0.244124
    130 C44        -3.0210    1.3200   -2.3790 ca        1 MOL     -0.244124
    131 C45        -2.1650    3.4340   -4.0890 ca        1 MOL     -0.136381
    132 C46        -3.8590    1.7760   -3.4620 ca        1 MOL     -0.136381
    133 C47        -3.4010    2.7940   -4.3310 ca        1 MOL      0.237803
    134 O20        -4.2030    3.1180   -5.4210 oh        1 MOL     -0.547121
    135 H56        -0.0670    1.9740    1.8120 hn        1 MOL      0.339729
    136 H57        -0.0050    3.5310   -0.6850 h1        1 MOL     -0.017152
    137 H58        -1.5050    0.9870   -0.1930 hc        1 MOL      0.099221
    138 H59        -0.1730    0.9830   -1.2640 hc        1 MOL      0.099221
    139 H60        -0.4460    3.4860   -2.8980 ha        1 MOL      0.161176
    140 H61        -3.3140    0.4880   -1.7520 ha        1 MOL      0.161176
    141 H62        -1.8540    4.2520   -4.7180 ha        1 MOL      0.120747
    142 H63        -4.6980    1.1360   -3.6490 ha        1 MOL      0.120747
    143 H64        -5.1350    2.8950   -5.4100 ho        1 MOL      0.385802
    144 N13        -2.2920    4.6560   -0.0880 n         1 MOL     -0.539562
    145 C48        -3.6430    5.2400    0.2550 c3        1 MOL      0.113129
    146 C49        -4.6280    4.9190   -0.8990 c         1 MOL      0.635019
    147 O21        -4.7130    5.6760   -1.8740 o         1 MOL     -0.567887
    148 C50        -3.5510    6.7450    0.6010 c3        1 MOL      0.067446
    149 C51        -4.9400    7.3380    0.9860 c3        1 MOL     -0.097665
    150 C52        -4.9230    8.4570    2.0880 c         1 MOL      0.687449
    151 O22        -5.4880    9.5430    1.8700 o         1 MOL     -0.668523
    152 O23        -4.5460    8.0490    3.1950 o         1 MOL     -0.668523
    153 H65        -1.7470    5.0720   -0.8150 hn        1 MOL      0.283810
    154 H66        -3.9840    4.7900    1.1850 h1        1 MOL      0.148009
    155 H67        -3.0740    7.3510   -0.1650 hc        1 MOL     -0.025958
    156 H68        -2.8340    6.8790    1.4210 hc        1 MOL     -0.025958
    157 H69        -5.4790    6.4640    1.3480 hc        1 MOL     -0.012847
    158 H70        -5.4090    7.7150    0.0700 hc        1 MOL     -0.012847
    159 N14        -5.5330    3.9130   -0.7380 n         1 MOL     -0.574814
    160 C53        -5.5570    2.7590    0.2650 c3        1 MOL     -0.014666
    161 C54        -6.2190    2.9780    1.6750 c         1 MOL      0.461053
    162 O24        -6.7470    4.0580    1.9670 o         1 MOL     -0.498166
    163 C55        -6.2670    1.6120   -0.5330 c3        1 MOL      0.198605
    164 C56        -7.7530    1.7850   -0.7590 c3        1 MOL     -0.546587
    165 C57        -8.2450    0.6460   -1.6510 c         1 MOL      0.784334
    166 O25        -8.1330    0.8070   -2.8770 o         1 MOL     -0.670002
    167 O26        -8.6590   -0.4040   -1.1790 o         1 MOL     -0.670002
    168 H71        -6.2040    3.8390   -1.5020 hn        1 MOL      0.313810
    169 H72        -4.4950    2.5680    0.4360 h1        1 MOL      0.034732
    170 H73        -6.0580    0.7390    0.0770 hc        1 MOL     -0.031877
    171 H74        -5.7480    1.4090   -1.4670 hc        1 MOL     -0.031877
    172 H75        -7.8810    2.7650   -1.2240 hc        1 MOL      0.123465
    173 H76        -8.4070    1.8060    0.1140 hc        1 MOL      0.123465
    174 N15        -5.8910    2.0270    2.5150 n         1 MOL     -0.291373
    175 C58        -6.1430    1.9190    4.0040 c3        1 MOL     -0.064525
    176 H77        -5.2000    2.0270    4.5400 h1        1 MOL      0.065512
    177 H78        -6.8300    2.7060    4.3140 h1        1 MOL      0.065512
    178 H79        -6.5810    0.9460    4.2290 h1        1 MOL      0.065512
    179 H80        -5.5140    1.1820    2.1210 hn        1 MOL      0.281976
    180 Ca1        -8.6850   -2.9040   -1.3350 Ca        1 MOL      1.534451
    181 O27        -7.2200   -1.6510   -3.4270 oh        1 MOL     -0.807517
    182 H81        -7.4890   -0.7510   -3.2490 ho        1 MOL      0.383853
    183 H82        -6.2620   -1.6060   -3.4650 ho        1 MOL      0.383853
    184 O28       -10.6410   -2.0090    0.3810 oh        1 MOL     -0.807517
    185 H83       -11.2640   -2.5300    0.8980 ho        1 MOL      0.383853
    186 H84       -10.0990   -1.5640    1.0400 ho        1 MOL      0.383853
    187 O29       -10.3590   -1.6290   -3.2250 oh        1 MOL     -0.807517
    188 H85       -10.8420   -1.0150   -2.6790 ho        1 MOL      0.383853
    189 H86       -10.0640   -1.1210   -3.9800 ho        1 MOL      0.383853
    190 O30        -8.1540   -4.3890   -3.5950 oh        1 MOL     -0.807517
    191 H87        -8.6810   -5.0050   -4.0940 ho        1 MOL      0.383853
    192 H88        -7.2770   -4.4520   -3.9920 ho        1 MOL      0.383853
@<TRIPOS>BOND
     1    1    2 1   
     2    1    4 1   
     3    1    5 1   
     4    1    6 1   
     5    2    3 2   
     6    2    7 1   
     7    7    8 1   
     8    7   15 1   
     9    8    9 1   
    10    8   11 1   
    11    8   16 1   
    12    9   10 2   
    13    9   19 1   
    14   11   12 1   
    15   11   17 1   
    16   11   18 1   
    17   12   13 1   
    18   12   14 1   
    19   19   20 1   
    20   19   27 1   
    21   20   21 1   
    22   20   23 1   
    23   20   28 1   
    24   21   22 2   
    25   21   38 1   
    26   23   24 1   
    27   23   25 1   
    28   23   29 1   
    29   24   26 1   
    30   24   30 1   
    31   24   31 1   
    32   25   32 1   
    33   25   33 1   
    34   25   34 1   
    35   26   35 1   
    36   26   36 1   
    37   26   37 1   
    38   38   39 1   
    39   38   46 1   
    40   39   40 1   
    41   39   42 1   
    42   39   47 1   
    43   40   41 2   
    44   40   50 1   
    45   42   43 1   
    46   42   48 1   
    47   42   49 1   
    48   43   44 1   
    49   43   45 1   
    50   50   51 1   
    51   50   54 1   
    52   51   52 1   
    53   51   55 1   
    54   51   56 1   
    55   52   53 2   
    56   52   57 1   
    57   57   58 1   
    58   57   65 1   
    59   58   59 1   
    60   58   61 1   
    61   58   66 1   
    62   59   60 2   
    63   59   69 1   
    64   61   62 1   
    65   61   67 1   
    66   61   68 1   
    67   62   63 1   
    68   62   64 1   
    69   69   70 1   
    70   69   73 1   
    71   70   71 1   
    72   70   74 1   
    73   70   75 1   
    74   71   72 2   
    75   71   76 1   
    76   76   77 1   
    77   76   85 1   
    78   77   78 1   
    79   77   80 1   
    80   77   86 1   
    81   78   79 2   
    82   78   93 1   
    83   80   81 1   
    84   80   87 1   
    85   80   88 1   
    86   81   82 1   
    87   81   89 1   
    88   81   90 1   
    89   82   83 1   
    90   82   84 2   
    91   83   91 1   
    92   83   92 1   
    93   93   94 1   
    94   93  100 1   
    95   94   95 1   
    96   94   97 1   
    97   94  101 1   
    98   95   96 2   
    99   95  109 1   
   100   97   98 1   
   101   97   99 1   
   102   97  102 1   
   103   98  103 1   
   104   98  104 1   
   105   98  105 1   
   106   99  106 1   
   107   99  107 1   
   108   99  108 1   
   109  109  110 1   
   110  109  117 1   
   111  110  111 1   
   112  110  113 1   
   113  110  118 1   
   114  111  112 2   
   115  111  123 1   
   116  113  114 1   
   117  113  119 1   
   118  113  120 1   
   119  114  115 1   
   120  114  116 2   
   121  115  121 1   
   122  115  122 1   
   123  123  124 1   
   124  123  135 1   
   125  124  125 1   
   126  124  127 1   
   127  124  136 1   
   128  125  126 2   
   129  125  144 1   
   130  127  128 1   
   131  127  137 1   
   132  127  138 1   
   133  128  129 ar  
   134  128  130 ar  
   135  129  131 ar  
   136  129  139 1   
   137  130  132 ar  
   138  130  140 1   
   139  131  133 ar  
   140  131  141 1   
   141  132  133 ar  
   142  132  142 1   
   143  133  134 1   
   144  134  143 1   
   145  144  145 1   
   146  144  153 1   
   147  145  146 1   
   148  145  148 1   
   149  145  154 1   
   150  146  147 2   
   151  146  159 1   
   152  148  149 1   
   153  148  155 1   
   154  148  156 1   
   155  149  150 1   
   156  149  157 1   
   157  149  158 1   
   158  150  151 1   
   159  150  152 1   
   160  159  160 1   
   161  159  168 1   
   162  160  161 1   
   163  160  163 1   
   164  160  169 1   
   165  161  162 2   
   166  161  174 1   
   167  163  164 1   
   168  163  170 1   
   169  163  171 1   
   170  164  165 1   
   171  164  172 1   
   172  164  173 1   
   173  165  166 1   
   174  165  167 1   
   175  174  175 1   
   176  174  179 1   
   177  175  176 1   
   178  175  177 1   
   179  175  178 1   
   180  181  182 1   
   181  181  183 1   
   182  184  185 1   
   183  184  186 1   
   184  187  188 1   
   185  187  189 1   
   186  190  191 1   
   187  190  192 1   
@<TRIPOS>SUBSTRUCTURE
     1 MOL         1 TEMP              0 ****  ****    0 ROOT
