@<TRIPOS>MOLECULE
MOL
  189   185     1     0     0
SMALL
resp


@<TRIPOS>ATOM
      1 C1          5.9160    1.8750    6.0050 c3        1 MOL     -0.171523
      2 C2          5.2960    1.5580    4.6010 c         1 MOL      0.666418
      3 O1          4.8750    2.5080    3.8780 o         1 MOL     -0.578160
      4 H1          5.3990    1.2950    6.7690 hc        1 MOL      0.039179
      5 H2          6.9740    1.6100    6.0030 hc        1 MOL      0.039179
      6 H3          5.8070    2.9380    6.2200 hc        1 MOL      0.039179
      7 N1          5.3680    0.2770    4.2000 n         1 MOL     -0.455959
      8 C3          5.0470   -0.1130    2.8420 c3        1 MOL      0.098539
      9 C4          3.5730    0.0770    2.3980 c         1 MOL     -0.064793
     10 O2          3.2120   -0.3230    1.3070 o         1 MOL      0.005987
     11 C5          5.5220   -1.5630    2.5710 c3        1 MOL     -0.158849
     12 C6          4.9780   -2.5260    3.6370 c         1 MOL      0.638391
     13 O3          3.7810   -2.9570    3.5450 o         1 MOL     -0.675051
     14 O4          5.7610   -2.8880    4.5760 o         1 MOL     -0.675051
     15 H4          5.8100   -0.3940    4.8110 hn        1 MOL      0.273867
     16 H5          5.6460    0.4950    2.1660 h1        1 MOL      0.103860
     17 H6          6.6070   -1.5720    2.5530 hc        1 MOL      0.043394
     18 H7          5.2850   -1.9890    1.5900 hc        1 MOL      0.043394
     19 N2          2.6750    0.5160    3.2120 n         1 MOL     -0.080173
     20 C7          1.2330    0.5710    2.8030 c3        1 MOL     -0.108433
     21 C8          0.6910    1.8850    2.2500 c         1 MOL      0.513650
     22 O5          0.9480    2.9000    2.9210 o         1 MOL     -0.557120
     23 C9          0.3950    0.1290    4.0300 c3        1 MOL     -0.121202
     24 C10         0.3380   -1.3660    4.2110 c3        1 MOL      0.165145
     25 C11        -0.4160   -1.7890    5.4500 c3        1 MOL      0.039157
     26 C12        -0.5090   -3.3410    5.5450 c3        1 MOL      0.043560
     27 N3         -1.2730   -3.6220    6.7790 n4        1 MOL     -0.349464
     28 H8          2.9430    0.7360    4.1580 hn        1 MOL      0.212068
     29 H9          1.1090   -0.1330    1.9790 h1        1 MOL      0.173455
     30 H10        -0.6330    0.4810    3.9030 hc        1 MOL      0.035868
     31 H11         0.6970    0.5760    4.9710 hc        1 MOL      0.035868
     32 H12         1.3740   -1.7200    4.2440 hc        1 MOL     -0.012555
     33 H13        -0.2780   -1.8240    3.4310 hc        1 MOL     -0.012555
     34 H14        -1.3530   -1.2460    5.4560 hc        1 MOL     -0.014679
     35 H15         0.1440   -1.4730    6.3380 hc        1 MOL     -0.014679
     36 H16         0.4940   -3.7710    5.6020 hx        1 MOL      0.092118
     37 H17        -1.0240   -3.6140    4.6190 hx        1 MOL      0.092118
     38 H18        -1.7840   -4.4880    6.6640 hn        1 MOL      0.321038
     39 H19        -0.7240   -3.5980    7.6210 hn        1 MOL      0.321038
     40 H20        -2.0090   -2.9450    6.8930 hn        1 MOL      0.321038
     41 N4         -0.2240    2.0140    1.2860 n         1 MOL     -0.014611
     42 C13        -0.7870    0.9500    0.4450 c3        1 MOL     -0.585911
     43 C14        -1.4140   -0.3730    1.0030 c         1 MOL      0.570823
     44 O6         -1.0340   -1.5050    0.7760 o         1 MOL     -0.394792
     45 C15         0.1740    0.7970   -0.8010 c3        1 MOL      0.108721
     46 C16         0.1810    1.9730   -1.7530 c         1 MOL      0.605846
     47 O7          0.8960    1.9000   -2.7610 o         1 MOL     -0.677569
     48 O8         -0.4010    3.0150   -1.4180 o         1 MOL     -0.677569
     49 H21        -0.4140    2.9780    1.0730 hn        1 MOL      0.072577
     50 H22        -1.7350    1.3060    0.0580 h1        1 MOL      0.124960
     51 H23        -0.0940   -0.0930   -1.3560 hc        1 MOL      0.021105
     52 H24         1.2030    0.8130   -0.4320 hc        1 MOL      0.021105
     53 N5         -2.4640   -0.2550    1.8120 n         1 MOL     -0.298139
     54 C17        -3.2940    0.9540    2.0600 c3        1 MOL      0.174885
     55 C18        -4.5180    0.5720    2.8790 c         1 MOL      0.457880
     56 O9         -4.5980   -0.5920    3.3190 o         1 MOL     -0.561474
     57 H25        -2.6520   -1.0870    2.3540 hn        1 MOL      0.171001
     58 H26        -3.5940    1.3250    1.0760 h1        1 MOL      0.035413
     59 H27        -2.6340    1.6830    2.5220 h1        1 MOL      0.035413
     60 N6         -5.5700    1.3660    3.0000 n         1 MOL     -0.448675
     61 C19        -5.7970    2.6190    2.1830 c3        1 MOL     -0.053371
     62 C20        -6.5620    2.4270    0.8720 c         1 MOL      0.499211
     63 O10        -7.5060    1.6240    0.7860 o         1 MOL     -0.486357
     64 C21        -6.4910    3.6070    3.0840 c3        1 MOL     -0.150761
     65 C22        -6.7150    4.9010    2.3740 c         1 MOL      0.765637
     66 O11        -7.7940    5.5090    2.5980 o         1 MOL     -0.689096
     67 O12        -5.8120    5.4250    1.7570 o         1 MOL     -0.689096
     68 H28        -6.3900    1.0510    3.4940 hn        1 MOL      0.326265
     69 H29        -4.7860    2.9310    1.9560 h1        1 MOL      0.021205
     70 H30        -5.9230    3.8210    3.9950 hc        1 MOL      0.054017
     71 H31        -7.4620    3.2500    3.4310 hc        1 MOL      0.054017
     72 N7         -6.0750    3.1250   -0.1970 n         1 MOL     -0.206186
     73 C23        -6.7190    3.0670   -1.4900 c3        1 MOL      0.008827
     74 C24        -6.8260    1.7370   -2.1260 c         1 MOL      0.426655
     75 O13        -7.8780    1.3560   -2.7380 o         1 MOL     -0.516983
     76 H32        -5.2510    3.6930   -0.0890 hn        1 MOL      0.153076
     77 H33        -6.1270    3.6140   -2.2190 h1        1 MOL      0.051191
     78 H34        -7.6930    3.5560   -1.4190 h1        1 MOL      0.051191
     79 N8         -5.7610    0.9050   -2.0110 n         1 MOL     -0.198227
     80 C25        -5.7440   -0.5180   -2.2820 c3        1 MOL      0.000879
     81 C26        -4.8130   -1.1430   -1.2380 c         1 MOL      0.204333
     82 O14        -3.9290   -0.4970   -0.7620 o         1 MOL     -0.300958
     83 C27        -5.1140   -0.8660   -3.5880 c3        1 MOL      0.445803
     84 C28        -4.3210    0.1670   -4.3690 c3        1 MOL     -0.388684
     85 O15        -6.1340   -1.2360   -4.4710 oh        1 MOL     -0.654109
     86 H35        -4.9540    1.2290   -1.4870 hn        1 MOL      0.119535
     87 H36        -6.7290   -0.9700   -2.3370 h1        1 MOL      0.132976
     88 H37        -4.4790   -1.7470   -3.5100 h1        1 MOL     -0.052840
     89 H38        -5.7030   -1.3640   -5.3240 ho        1 MOL      0.393783
     90 H39        -5.0080    0.9820   -4.5730 hc        1 MOL      0.090798
     91 H40        -3.4940    0.4900   -3.7390 hc        1 MOL      0.090798
     92 H41        -3.9290   -0.2110   -5.3160 hc        1 MOL      0.090798
     93 N9         -5.1260   -2.3830   -0.7930 n         1 MOL     -0.320086
     94 C29        -4.3010   -3.2580    0.1390 c3        1 MOL     -0.042387
     95 C30        -2.9910   -3.7240   -0.4440 c         1 MOL      0.129063
     96 O16        -2.4860   -4.6880    0.1300 o         1 MOL     -0.465522
     97 C31        -5.2540   -4.4440    0.5810 c3        1 MOL      0.300628
     98 C32        -5.4100   -5.5230   -0.6200 c3        1 MOL     -0.000175
     99 C33        -6.6440   -4.0680    1.1150 c3        1 MOL     -0.295873
    100 C34        -6.2970   -6.7200   -0.2580 c3        1 MOL     -0.183934
    101 H42        -6.0050   -2.7450   -1.1370 hn        1 MOL      0.259119
    102 H43        -4.0400   -2.6940    1.0330 h1        1 MOL      0.145306
    103 H44        -4.7450   -4.9600    1.3930 hc        1 MOL     -0.020285
    104 H45        -4.4380   -5.9830   -0.8020 hc        1 MOL      0.028565
    105 H46        -5.7830   -5.0890   -1.5420 hc        1 MOL      0.028565
    106 H47        -6.4170   -3.2110    1.7530 hc        1 MOL      0.063508
    107 H48        -7.2680   -3.7680    0.2710 hc        1 MOL      0.063508
    108 H49        -7.1060   -4.8690    1.6910 hc        1 MOL      0.063508
    109 H50        -7.2780   -6.2600   -0.1550 hc        1 MOL      0.042257
    110 H51        -6.2910   -7.5920   -0.9050 hc        1 MOL      0.042257
    111 H52        -6.1080   -7.0640    0.7650 hc        1 MOL      0.042257
    112 N10        -2.5230   -3.1350   -1.5560 n         1 MOL      0.080209
    113 C35        -1.5900   -3.8330   -2.4340 c3        1 MOL     -0.017326
    114 C36        -0.1270   -3.8490   -1.9860 c         1 MOL      0.324271
    115 O17         0.6630   -4.7090   -2.2570 o         1 MOL     -0.557784
    116 C37        -1.6280   -3.2350   -3.8700 c3        1 MOL      0.231752
    117 C38        -1.2120   -1.7400   -3.8890 c3        1 MOL     -0.172790
    118 O18        -2.9490   -3.3420   -4.3570 oh        1 MOL     -0.626194
    119 H53        -3.0890   -2.3690   -1.8790 hn        1 MOL      0.037957
    120 H54        -1.8930   -4.8730   -2.5770 h1        1 MOL      0.096388
    121 H55        -0.9580   -3.8200   -4.4860 h1        1 MOL      0.046994
    122 H56        -2.8940   -2.8690   -5.1880 ho        1 MOL      0.384826
    123 H57        -1.3570   -1.4030   -4.9140 hc        1 MOL      0.054241
    124 H58        -1.8200   -1.0640   -3.2860 hc        1 MOL      0.054241
    125 H59        -0.1750   -1.7760   -3.5550 hc        1 MOL      0.054241
    126 N11         0.1930   -2.9120   -1.1300 n         1 MOL      0.027208
    127 C39         1.5960   -2.7350   -0.5590 c3        1 MOL      0.061370
    128 C40         2.6680   -2.3240   -1.5750 c         1 MOL      0.461525
    129 O19         2.3350   -2.2240   -2.7480 o         1 MOL     -0.503221
    130 C41         1.9280   -3.9720    0.3010 c3        1 MOL      0.423306
    131 C42         1.0220   -4.0500    1.5240 c3        1 MOL     -0.226852
    132 O20         3.2150   -3.9000    0.8530 oh        1 MOL     -0.738751
    133 H60        -0.5280   -2.2840   -0.7880 hn        1 MOL      0.016706
    134 H61         1.6010   -1.9640    0.2090 h1        1 MOL     -0.226065
    135 H62         1.8470   -4.9200   -0.2460 h1        1 MOL      0.032757
    136 H63         3.1700   -3.6450    1.7720 ho        1 MOL      0.455202
    137 H64         1.1550   -3.1300    2.0950 hc        1 MOL      0.026931
    138 H65        -0.0410   -4.1200    1.2640 hc        1 MOL      0.026931
    139 H66         1.2850   -4.9180    2.1300 hc        1 MOL      0.026931
    140 N12         3.9160   -1.9150   -1.1760 n         1 MOL     -0.423566
    141 C43         4.9310   -1.4230   -2.0370 c3        1 MOL      0.184908
    142 C44         4.9560    0.1590   -2.1630 c         1 MOL      0.519193
    143 O21         5.3350    0.6510   -3.2290 o         1 MOL     -0.608834
    144 C45         6.3050   -1.9930   -1.6370 c3        1 MOL     -0.091244
    145 C46         7.4510   -1.7640   -2.6290 c3        1 MOL      0.020692
    146 C47         7.3120   -2.5770   -4.0610 c3        1 MOL     -0.112468
    147 C48         7.1150   -4.0510   -3.8310 c3        1 MOL      0.143430
    148 N13         7.0170   -4.7560   -5.1450 n4        1 MOL     -0.269574
    149 H67         4.1710   -2.1190   -0.2120 hn        1 MOL      0.297494
    150 H68         4.7320   -1.8350   -3.0250 h1        1 MOL      0.024705
    151 H69         6.1330   -2.9810   -1.2060 hc        1 MOL      0.031696
    152 H70         6.6970   -1.4900   -0.7590 hc        1 MOL      0.031696
    153 H71         8.4400   -2.1790   -2.3830 hc        1 MOL      0.023552
    154 H72         7.4850   -0.7120   -2.8720 hc        1 MOL      0.023552
    155 H73         8.1770   -2.3920   -4.6990 hc        1 MOL      0.039586
    156 H74         6.4210   -2.1710   -4.5360 hc        1 MOL      0.039586
    157 H75         6.3090   -4.3650   -3.1670 hx        1 MOL      0.049522
    158 H76         8.0500   -4.4340   -3.4250 hx        1 MOL      0.049522
    159 H77         6.1740   -4.5290   -5.6620 hn        1 MOL      0.291712
    160 H78         7.7750   -4.4740   -5.7600 hn        1 MOL      0.291712
    161 H79         7.1310   -5.7540   -5.1480 hn        1 MOL      0.291712
    162 N14         4.4710    0.8240   -1.1150 n         1 MOL     -0.068420
    163 C49         4.5910    2.3150   -0.9870 c3        1 MOL     -0.375946
    164 C50         6.0730    2.6180   -0.6540 c         1 MOL      0.379905
    165 O22         6.6420    2.1360    0.3330 o         1 MOL     -0.476091
    166 C51         3.6510    2.9570    0.0660 c3        1 MOL      0.872473
    167 C52         3.5280    4.4000    0.0300 c3        1 MOL     -0.647216
    168 C53         3.4770    4.9700   -1.4100 c         1 MOL      0.379227
    169 O23         4.5330    5.3930   -1.8560 o         1 MOL     -0.581087
    170 O24         2.3630    5.1650   -1.9960 o         1 MOL     -0.581087
    171 H80         4.2270    0.3700   -0.2460 hn        1 MOL     -0.081747
    172 H81         4.3380    2.7510   -1.9570 h1        1 MOL      0.252072
    173 H82         3.8770    2.5970    1.0730 hc        1 MOL     -0.181038
    174 H83         2.6020    2.6660   -0.0180 hc        1 MOL     -0.181038
    175 H84         4.4950    4.7790    0.3560 hc        1 MOL      0.159430
    176 H85         2.7610    4.8080    0.6850 hc        1 MOL      0.159430
    177 N15         6.7010    3.3890   -1.5710 n         1 MOL     -0.226738
    178 C54         8.0230    3.8940   -1.3880 c3        1 MOL      0.006568
    179 H86         8.4400    4.1760   -2.3540 h1        1 MOL      0.034058
    180 H87         7.9920    4.7680   -0.7370 h1        1 MOL      0.034058
    181 H88         8.6480    3.1240   -0.9340 h1        1 MOL      0.034058
    182 H89         6.1160    3.7560   -2.3060 hn        1 MOL      0.269206
    183 Ca1        -0.0810    5.7330   -1.7060 Ca        1 MOL      1.601127
    184 O25         1.0010    7.6100   -3.1830 oh        1 MOL     -0.877871
    185 H90         1.6830    7.5180   -3.8450 ho        1 MOL      0.437025
    186 H91         1.3330    8.2690   -2.5720 ho        1 MOL      0.437025
    187 O26        -0.9960    4.7960   -4.1000 oh        1 MOL     -0.877871
    188 H92        -1.3040    3.8890   -4.2130 ho        1 MOL      0.437025
    189 H93        -1.2110    5.2180   -4.9330 ho        1 MOL      0.437025
@<TRIPOS>BOND
     1    1    2 1   
     2    1    4 1   
     3    1    5 1   
     4    1    6 1   
     5    2    3 2   
     6    2    7 1   
     7    7    8 1   
     8    7   15 1   
     9    8    9 1   
    10    8   11 1   
    11    8   16 1   
    12    9   10 2   
    13    9   19 1   
    14   11   12 1   
    15   11   17 1   
    16   11   18 1   
    17   12   13 1   
    18   12   14 1   
    19   19   20 1   
    20   19   28 1   
    21   20   21 1   
    22   20   23 1   
    23   20   29 1   
    24   21   22 2   
    25   21   41 1   
    26   23   24 1   
    27   23   30 1   
    28   23   31 1   
    29   24   25 1   
    30   24   32 1   
    31   24   33 1   
    32   25   26 1   
    33   25   34 1   
    34   25   35 1   
    35   26   27 1   
    36   26   36 1   
    37   26   37 1   
    38   27   38 1   
    39   27   39 1   
    40   27   40 1   
    41   41   42 1   
    42   41   49 1   
    43   42   43 1   
    44   42   45 1   
    45   42   50 1   
    46   43   44 2   
    47   43   53 1   
    48   45   46 1   
    49   45   51 1   
    50   45   52 1   
    51   46   47 1   
    52   46   48 1   
    53   53   54 1   
    54   53   57 1   
    55   54   55 1   
    56   54   58 1   
    57   54   59 1   
    58   55   56 2   
    59   55   60 1   
    60   60   61 1   
    61   60   68 1   
    62   61   62 1   
    63   61   64 1   
    64   61   69 1   
    65   62   63 2   
    66   62   72 1   
    67   64   65 1   
    68   64   70 1   
    69   64   71 1   
    70   65   66 1   
    71   65   67 1   
    72   72   73 1   
    73   72   76 1   
    74   73   74 1   
    75   73   77 1   
    76   73   78 1   
    77   74   75 2   
    78   74   79 1   
    79   79   80 1   
    80   79   86 1   
    81   80   81 1   
    82   80   83 1   
    83   80   87 1   
    84   81   82 2   
    85   81   93 1   
    86   83   84 1   
    87   83   85 1   
    88   83   88 1   
    89   84   90 1   
    90   84   91 1   
    91   84   92 1   
    92   85   89 1   
    93   93   94 1   
    94   93  101 1   
    95   94   95 1   
    96   94   97 1   
    97   94  102 1   
    98   95   96 2   
    99   95  112 1   
   100   97   98 1   
   101   97   99 1   
   102   97  103 1   
   103   98  100 1   
   104   98  104 1   
   105   98  105 1   
   106   99  106 1   
   107   99  107 1   
   108   99  108 1   
   109  100  109 1   
   110  100  110 1   
   111  100  111 1   
   112  112  113 1   
   113  112  119 1   
   114  113  114 1   
   115  113  116 1   
   116  113  120 1   
   117  114  115 2   
   118  114  126 1   
   119  116  117 1   
   120  116  118 1   
   121  116  121 1   
   122  117  123 1   
   123  117  124 1   
   124  117  125 1   
   125  118  122 1   
   126  126  127 1   
   127  126  133 1   
   128  127  128 1   
   129  127  130 1   
   130  127  134 1   
   131  128  129 2   
   132  128  140 1   
   133  130  131 1   
   134  130  132 1   
   135  130  135 1   
   136  131  137 1   
   137  131  138 1   
   138  131  139 1   
   139  132  136 1   
   140  140  141 1   
   141  140  149 1   
   142  141  142 1   
   143  141  144 1   
   144  141  150 1   
   145  142  143 2   
   146  142  162 1   
   147  144  145 1   
   148  144  151 1   
   149  144  152 1   
   150  145  146 1   
   151  145  153 1   
   152  145  154 1   
   153  146  147 1   
   154  146  155 1   
   155  146  156 1   
   156  147  148 1   
   157  147  157 1   
   158  147  158 1   
   159  148  159 1   
   160  148  160 1   
   161  148  161 1   
   162  162  163 1   
   163  162  171 1   
   164  163  164 1   
   165  163  166 1   
   166  163  172 1   
   167  164  165 2   
   168  164  177 1   
   169  166  167 1   
   170  166  173 1   
   171  166  174 1   
   172  167  168 1   
   173  167  175 1   
   174  167  176 1   
   175  168  169 1   
   176  168  170 1   
   177  177  178 1   
   178  177  182 1   
   179  178  179 1   
   180  178  180 1   
   181  178  181 1   
   182  184  185 1   
   183  184  186 1   
   184  187  188 1   
   185  187  189 1   
@<TRIPOS>SUBSTRUCTURE
     1 MOL         1 TEMP              0 ****  ****    0 ROOT
