@<TRIPOS>MOLECULE
MOL
  181   177     1     0     0
SMALL
resp


@<TRIPOS>ATOM
      1 C1         10.8660   -5.0630    3.7030 c3        1 MOL     -0.438085
      2 C2          9.8420   -4.9570    2.5690 c         1 MOL      0.687703
      3 O1          8.9950   -5.8060    2.2830 o         1 MOL     -0.598304
      4 H1         10.4460   -4.6370    4.6130 hc        1 MOL      0.120242
      5 H2         11.1140   -6.1110    3.8720 hc        1 MOL      0.120242
      6 H3         11.7690   -4.5170    3.4300 hc        1 MOL      0.120242
      7 N1          9.9030   -3.8480    1.8360 n         1 MOL     -0.480688
      8 C3         10.7330   -2.6320    1.7490 c3        1 MOL      0.090129
      9 C4         10.8270   -2.0810    0.3260 c         1 MOL      0.445303
     10 O2          9.7370   -2.0150   -0.3230 o         1 MOL     -0.491266
     11 C5         10.1920   -1.5660    2.6960 c3        1 MOL     -0.134773
     12 C6          8.6630   -1.2260    2.6660 c         1 MOL      0.771183
     13 O3          8.1180   -0.4330    3.5420 o         1 MOL     -0.713618
     14 O4          7.9280   -1.7820    1.8520 o         1 MOL     -0.713618
     15 H4          9.2390   -3.9650    1.0830 hn        1 MOL      0.231479
     16 H5         11.7710   -2.8460    2.0040 h1        1 MOL      0.019028
     17 H6         10.6790   -0.6100    2.5110 hc        1 MOL      0.026853
     18 H7         10.4630   -1.9020    3.6990 hc        1 MOL      0.026853
     19 N2         12.0210   -1.5500   -0.0180 n         1 MOL     -0.467165
     20 C7         12.4100   -0.8370   -1.1970 c3        1 MOL      0.257479
     21 C8         11.7120    0.5150   -1.3660 c         1 MOL      0.388007
     22 O5         12.4060    1.5370   -1.4660 o         1 MOL     -0.558906
     23 C9         12.3190   -1.7300   -2.4550 c3        1 MOL     -0.323539
     24 H8         12.7630   -1.7370    0.6450 hn        1 MOL      0.292230
     25 H9         13.4680   -0.5830   -1.1170 h1        1 MOL      0.028857
     26 H10        12.4970   -1.0640   -3.3010 hc        1 MOL      0.088351
     27 H11        13.0370   -2.5520   -2.4540 hc        1 MOL      0.088351
     28 H12        11.3070   -2.1270   -2.6030 hc        1 MOL      0.088351
     29 N3         10.3390    0.5580   -1.4010 n         1 MOL     -0.000967
     30 C10         9.4690    1.7450   -1.7010 c3        1 MOL     -0.149164
     31 C11         8.3840    1.9450   -0.5620 c         1 MOL      0.558849
     32 O6          8.0650    1.0580    0.2520 o         1 MOL     -0.465511
     33 C12         8.7730    1.6210   -2.9980 c3        1 MOL     -0.014155
     34 C13         7.7340    0.4730   -3.1080 c         1 MOL      0.586036
     35 O7          6.8660    0.5100   -3.9940 o         1 MOL     -0.655556
     36 O8          7.8450   -0.5490   -2.4100 o         1 MOL     -0.655556
     37 H13         9.7810   -0.2500   -1.1670 hn        1 MOL     -0.052071
     38 H14        10.0610    2.6640   -1.7960 h1        1 MOL      0.082133
     39 H15         9.4940    1.5730   -3.8180 hc        1 MOL      0.027634
     40 H16         8.2660    2.5550   -3.2490 hc        1 MOL      0.027634
     41 N4          7.8390    3.1560   -0.6710 n         1 MOL     -0.607712
     42 C14         6.6710    3.5670    0.1330 c3        1 MOL      0.084470
     43 C15         5.4090    2.8340   -0.1540 c         1 MOL      0.522790
     44 O9          5.1860    2.3580   -1.2590 o         1 MOL     -0.491822
     45 H17         8.0360    3.6920   -1.5080 hn        1 MOL      0.365399
     46 H18         6.3780    4.6190    0.0950 h1        1 MOL      0.054956
     47 H19         6.9260    3.4550    1.1940 h1        1 MOL      0.054956
     48 N5          4.5060    2.7110    0.8750 n         1 MOL     -0.565899
     49 C16         3.2450    1.9430    0.8590 c3        1 MOL      0.081303
     50 C17         1.9020    2.7380    1.0160 c         1 MOL      0.554917
     51 O10         0.8310    2.1800    0.9510 o         1 MOL     -0.465425
     52 C18         3.3390    0.7190    1.7610 c3        1 MOL     -0.011488
     53 C19         4.6780   -0.0680    1.7890 c         1 MOL      0.529341
     54 N6          5.4020    0.1690    2.8960 n         1 MOL     -0.755612
     55 O11         5.1380   -0.8190    0.9900 o         1 MOL     -0.518246
     56 H20         4.7660    3.2280    1.6960 hn        1 MOL      0.262532
     57 H21         3.0270    1.4940   -0.1130 h1        1 MOL      0.118722
     58 H22         2.5320    0.0460    1.4640 hc        1 MOL      0.014113
     59 H23         3.1270    1.0790    2.7660 hc        1 MOL      0.014113
     60 H24         5.0230    0.7550    3.6340 hn        1 MOL      0.362863
     61 H25         6.3690   -0.1140    2.9750 hn        1 MOL      0.362863
     62 N7          2.0340    4.0250    1.3030 n         1 MOL     -0.488102
     63 C20         0.9090    5.0190    1.4130 c3        1 MOL     -0.150118
     64 C21         0.3690    5.2550    0.0250 c         1 MOL      0.720431
     65 O12         1.0330    4.9790   -0.9660 o         1 MOL     -0.543799
     66 H26         2.9400    4.3640    1.0350 hn        1 MOL      0.290844
     67 H27         1.2750    5.9160    1.9040 h1        1 MOL      0.123558
     68 H28         0.0780    4.5960    1.9850 h1        1 MOL      0.123558
     69 N8         -0.8710    5.8170   -0.1600 n         1 MOL     -0.611481
     70 C22        -1.8060    6.3110    0.8320 c3        1 MOL     -0.036159
     71 C23        -3.1490    5.5170    0.7910 c         1 MOL      0.606342
     72 O13        -3.9400    5.6100    1.7680 o         1 MOL     -0.613849
     73 C24        -2.1910    7.7830    0.7650 c3        1 MOL      0.467421
     74 C25        -0.8580    8.5160    0.8580 c3        1 MOL     -0.304975
     75 O14        -2.8950    8.2510   -0.3760 oh        1 MOL     -0.620237
     76 H29        -1.3060    5.9870   -1.0560 hn        1 MOL      0.341316
     77 H30        -1.4720    6.1140    1.8450 h1        1 MOL      0.054937
     78 H31        -2.7780    7.8780    1.6800 h1        1 MOL     -0.031966
     79 H32        -3.8500    8.1500   -0.3040 ho        1 MOL      0.371824
     80 H33        -0.4830    8.5930   -0.1540 hc        1 MOL      0.064267
     81 H34        -1.1650    9.4850    1.2530 hc        1 MOL      0.064267
     82 H35        -0.0880    8.0300    1.4680 hc        1 MOL      0.064267
     83 N9         -3.5260    4.7460   -0.2290 n         1 MOL     -0.433248
     84 C26        -4.6860    3.8660   -0.3300 c3        1 MOL      0.069026
     85 C27        -4.2310    2.4490   -0.3750 c         1 MOL      0.420128
     86 O15        -3.1200    2.0780   -0.7390 o         1 MOL     -0.459929
     87 C28        -5.4670    4.2930   -1.6070 c3        1 MOL     -0.005739
     88 C29        -5.9500    5.7670   -1.3700 c3        1 MOL      0.175567
     89 C30        -6.5920    3.2410   -1.9950 c3        1 MOL     -0.151993
     90 C31        -6.9670    6.2170   -2.4520 c3        1 MOL     -0.293461
     91 H36        -2.8780    4.8560   -0.9960 hn        1 MOL      0.213800
     92 H37        -5.3080    4.0270    0.5420 h1        1 MOL      0.183347
     93 H38        -4.7760    4.3610   -2.4580 hc        1 MOL      0.040187
     94 H39        -5.0840    6.4130   -1.5240 hc        1 MOL     -0.037059
     95 H40        -6.1610    5.8810   -0.3030 hc        1 MOL     -0.037059
     96 H41        -6.8880    3.3940   -3.0250 hc        1 MOL      0.055137
     97 H42        -6.1590    2.2470   -2.0930 hc        1 MOL      0.055137
     98 H43        -7.3810    3.1510   -1.2460 hc        1 MOL      0.055137
     99 H44        -7.8900    5.6370   -2.3760 hc        1 MOL      0.054902
    100 H45        -7.1740    7.2850   -2.4070 hc        1 MOL      0.054902
    101 H46        -6.4800    6.0260   -3.4130 hc        1 MOL      0.054902
    102 N10        -4.9840    1.4950    0.1750 n         1 MOL     -0.477204
    103 C32        -6.2410    1.6200    0.9030 c3        1 MOL      0.134672
    104 C33        -7.1190    0.3430    0.5300 c         1 MOL      0.691274
    105 O16        -6.5280   -0.7120    0.2700 o         1 MOL     -0.576251
    106 C34        -5.9520    1.8090    2.4330 c3        1 MOL     -0.363251
    107 C35        -7.1640    2.1370    3.2830 c         1 MOL      0.755436
    108 O17        -8.2950    2.3610    2.8700 o         1 MOL     -0.735620
    109 O18        -6.8940    2.3510    4.4750 o         1 MOL     -0.735620
    110 H47        -4.6050    0.5580    0.2640 hn        1 MOL      0.352916
    111 H48        -6.7550    2.5110    0.5660 h1        1 MOL     -0.009222
    112 H49        -5.3440    2.7100    2.4490 hc        1 MOL      0.095145
    113 H50        -5.4010    1.0280    2.9710 hc        1 MOL      0.095145
    114 N11        -8.4780    0.4950    0.5460 n         1 MOL     -0.696535
    115 C36        -9.4500   -0.5700    0.3110 c3        1 MOL      0.306334
    116 C37        -9.2450   -1.2000   -1.0710 c         1 MOL      0.249022
    117 O19        -9.1170   -0.3510   -1.9880 o         1 MOL     -0.511286
    118 C38       -10.8050    0.0400    0.4430 c3        1 MOL     -0.072732
    119 C39       -11.9330   -1.0180    0.6340 ca        1 MOL     -0.021222
    120 C40       -12.8050   -1.2830   -0.4490 ca        1 MOL     -0.137018
    121 C41       -11.9650   -1.8060    1.7820 ca        1 MOL     -0.137018
    122 C42       -13.7020   -2.3480   -0.3800 ca        1 MOL     -0.060243
    123 C43       -12.8800   -2.8600    1.9060 ca        1 MOL     -0.060243
    124 C44       -13.7190   -3.1150    0.8020 ca        1 MOL     -0.205222
    125 H51        -8.7940    1.4210    0.7930 hn        1 MOL      0.323412
    126 H52        -9.2500   -1.3060    1.0840 h1        1 MOL      0.040780
    127 H53       -11.0630    0.7720   -0.3270 hc        1 MOL      0.068434
    128 H54       -10.8720    0.7310    1.2920 hc        1 MOL      0.068434
    129 H55       -12.8090   -0.6290   -1.3170 ha        1 MOL      0.111981
    130 H56       -11.2410   -1.6310    2.5600 ha        1 MOL      0.111981
    131 H57       -14.4580   -2.5090   -1.1430 ha        1 MOL      0.095011
    132 H58       -12.8900   -3.5030    2.7750 ha        1 MOL      0.095011
    133 H59       -14.4000   -3.9200    1.0380 ha        1 MOL      0.110899
    134 N12        -9.2980   -2.5500   -1.3210 n         1 MOL      0.067435
    135 C45        -9.5060   -3.6360   -0.4070 c3        1 MOL      0.114889
    136 C46        -8.1700   -4.2670    0.0450 c         1 MOL      0.365469
    137 O20        -8.1300   -4.8330    1.1200 o         1 MOL     -0.544969
    138 C47       -10.4030   -4.6000   -1.1800 c3        1 MOL      0.042402
    139 C48       -10.5860   -4.1140   -2.5860 c3        1 MOL     -0.201415
    140 C49        -9.4200   -3.0740   -2.6320 c3        1 MOL      0.069995
    141 H60        -9.9820   -3.2990    0.5030 h1        1 MOL      0.026419
    142 H61       -10.0200   -5.6170   -1.0440 hc        1 MOL     -0.004094
    143 H62       -11.3820   -4.6180   -0.6920 hc        1 MOL     -0.004094
    144 H63       -10.4260   -4.9410   -3.2770 hc        1 MOL      0.047562
    145 H64       -11.4750   -3.5300   -2.8070 hc        1 MOL      0.047562
    146 H65        -8.5030   -3.6270   -2.8460 h1        1 MOL      0.021691
    147 H66        -9.6810   -2.3380   -3.3850 h1        1 MOL      0.021691
    148 N13        -7.0690   -4.1530   -0.7220 n         1 MOL     -0.258701
    149 C50        -5.6710   -4.5820   -0.4050 c3        1 MOL      0.143145
    150 C51        -5.3160   -6.0820   -0.4140 c         1 MOL      0.367227
    151 O21        -4.8750   -6.5990   -1.4210 o         1 MOL     -0.519119
    152 C52        -4.7850   -3.7470   -1.4640 c3        1 MOL      0.251612
    153 C53        -3.4040   -3.3940   -0.8980 c3        1 MOL     -0.285580
    154 C54        -2.6000   -2.4000   -1.7300 c         1 MOL      0.715895
    155 O22        -2.1620   -1.2860   -1.2380 o         1 MOL     -0.707124
    156 O23        -2.5120   -2.6290   -3.0000 o         1 MOL     -0.707124
    157 H67        -7.1320   -3.7510   -1.6400 hn        1 MOL      0.120081
    158 H68        -5.5260   -4.2150    0.6070 h1        1 MOL      0.054598
    159 H69        -5.2840   -2.8250   -1.7640 hc        1 MOL     -0.037023
    160 H70        -4.6290   -4.2820   -2.4060 hc        1 MOL     -0.037023
    161 H71        -2.8610   -4.3180   -0.6450 hc        1 MOL      0.014941
    162 H72        -3.6410   -2.7850   -0.0270 hc        1 MOL      0.014941
    163 N14        -5.3270   -6.8060    0.7380 n         1 MOL     -0.348800
    164 C55        -5.5720   -6.4080    2.1650 c3        1 MOL     -0.082080
    165 H73        -6.1600   -5.4910    2.1900 h1        1 MOL      0.064075
    166 H74        -6.1160   -7.2020    2.6770 h1        1 MOL      0.064075
    167 H75        -4.6170   -6.2400    2.6650 h1        1 MOL      0.064075
    168 H76        -4.9020   -7.7180    0.6460 hn        1 MOL      0.258559
    169 Ca1         6.8850   -1.8570   -0.4960 Ca        1 MOL      1.752908
    170 O24         6.2860   -2.9880   -2.9440 oh        1 MOL     -0.816712
    171 H77         6.0760   -2.4170   -3.6730 ho        1 MOL      0.406519
    172 H78         6.8340   -3.6750   -3.3130 ho        1 MOL      0.406519
    173 O25         7.7240   -4.3960   -0.5270 oh        1 MOL     -0.816712
    174 H79         7.7300   -5.0520    0.1720 ho        1 MOL      0.406519
    175 H80         8.2550   -4.7850   -1.2250 ho        1 MOL      0.406519
    176 O26         5.0350   -0.6290   -1.9450 oh        1 MOL     -0.816712
    177 H81         5.4700   -0.1940   -2.6690 ho        1 MOL      0.406519
    178 H82         4.1930   -0.1810   -1.8710 ho        1 MOL      0.406519
    179 O27         4.7340   -3.4880   -0.1150 oh        1 MOL     -0.816712
    180 H83         3.7750   -3.4780   -0.1710 ho        1 MOL      0.406519
    181 H84         4.9360   -4.2890    0.3670 ho        1 MOL      0.406519
@<TRIPOS>BOND
     1    1    2 1   
     2    1    4 1   
     3    1    5 1   
     4    1    6 1   
     5    2    3 2   
     6    2    7 1   
     7    7    8 1   
     8    7   15 1   
     9    8    9 1   
    10    8   11 1   
    11    8   16 1   
    12    9   10 2   
    13    9   19 1   
    14   11   12 1   
    15   11   17 1   
    16   11   18 1   
    17   12   13 1   
    18   12   14 1   
    19   19   20 1   
    20   19   24 1   
    21   20   21 1   
    22   20   23 1   
    23   20   25 1   
    24   21   22 2   
    25   21   29 1   
    26   23   26 1   
    27   23   27 1   
    28   23   28 1   
    29   29   30 1   
    30   29   37 1   
    31   30   31 1   
    32   30   33 1   
    33   30   38 1   
    34   31   32 2   
    35   31   41 1   
    36   33   34 1   
    37   33   39 1   
    38   33   40 1   
    39   34   35 1   
    40   34   36 1   
    41   41   42 1   
    42   41   45 1   
    43   42   43 1   
    44   42   46 1   
    45   42   47 1   
    46   43   44 2   
    47   43   48 1   
    48   48   49 1   
    49   48   56 1   
    50   49   50 1   
    51   49   52 1   
    52   49   57 1   
    53   50   51 2   
    54   50   62 1   
    55   52   53 1   
    56   52   58 1   
    57   52   59 1   
    58   53   54 1   
    59   53   55 2   
    60   54   60 1   
    61   54   61 1   
    62   62   63 1   
    63   62   66 1   
    64   63   64 1   
    65   63   67 1   
    66   63   68 1   
    67   64   65 2   
    68   64   69 1   
    69   69   70 1   
    70   69   76 1   
    71   70   71 1   
    72   70   73 1   
    73   70   77 1   
    74   71   72 2   
    75   71   83 1   
    76   73   74 1   
    77   73   75 1   
    78   73   78 1   
    79   74   80 1   
    80   74   81 1   
    81   74   82 1   
    82   75   79 1   
    83   83   84 1   
    84   83   91 1   
    85   84   85 1   
    86   84   87 1   
    87   84   92 1   
    88   85   86 2   
    89   85  102 1   
    90   87   88 1   
    91   87   89 1   
    92   87   93 1   
    93   88   90 1   
    94   88   94 1   
    95   88   95 1   
    96   89   96 1   
    97   89   97 1   
    98   89   98 1   
    99   90   99 1   
   100   90  100 1   
   101   90  101 1   
   102  102  103 1   
   103  102  110 1   
   104  103  104 1   
   105  103  106 1   
   106  103  111 1   
   107  104  105 2   
   108  104  114 1   
   109  106  107 1   
   110  106  112 1   
   111  106  113 1   
   112  107  108 1   
   113  107  109 1   
   114  114  115 1   
   115  114  125 1   
   116  115  116 1   
   117  115  118 1   
   118  115  126 1   
   119  116  117 2   
   120  116  134 1   
   121  118  119 1   
   122  118  127 1   
   123  118  128 1   
   124  119  120 ar  
   125  119  121 ar  
   126  120  122 ar  
   127  120  129 1   
   128  121  123 ar  
   129  121  130 1   
   130  122  124 ar  
   131  122  131 1   
   132  123  124 ar  
   133  123  132 1   
   134  124  133 1   
   135  134  135 1   
   136  134  140 1   
   137  135  136 1   
   138  135  138 1   
   139  135  141 1   
   140  136  137 2   
   141  136  148 1   
   142  138  139 1   
   143  138  142 1   
   144  138  143 1   
   145  139  140 1   
   146  139  144 1   
   147  139  145 1   
   148  140  146 1   
   149  140  147 1   
   150  148  149 1   
   151  148  157 1   
   152  149  150 1   
   153  149  152 1   
   154  149  158 1   
   155  150  151 2   
   156  150  163 1   
   157  152  153 1   
   158  152  159 1   
   159  152  160 1   
   160  153  154 1   
   161  153  161 1   
   162  153  162 1   
   163  154  155 1   
   164  154  156 1   
   165  163  164 1   
   166  163  168 1   
   167  164  165 1   
   168  164  166 1   
   169  164  167 1   
   170  170  171 1   
   171  170  172 1   
   172  173  174 1   
   173  173  175 1   
   174  176  177 1   
   175  176  178 1   
   176  179  180 1   
   177  179  181 1   
@<TRIPOS>SUBSTRUCTURE
     1 MOL         1 TEMP              0 ****  ****    0 ROOT
