@<TRIPOS>MOLECULE
MOL
  182   178     1     0     0
SMALL
resp


@<TRIPOS>ATOM
      1 C1          0.7720   -3.9040    6.5390 c3        1 MOL     -0.398773
      2 C2          0.8850   -3.5860    5.0250 c         1 MOL      0.758987
      3 O1         -0.1520   -3.3100    4.4210 o         1 MOL     -0.597817
      4 H1         -0.1580   -4.4400    6.7290 hc        1 MOL      0.115454
      5 H2          1.6170   -4.5220    6.8450 hc        1 MOL      0.115454
      6 H3          0.7780   -2.9730    7.1080 hc        1 MOL      0.115454
      7 N1          2.0950   -3.4460    4.4390 n         1 MOL     -0.646840
      8 C3          2.3320   -3.1170    3.0440 c3        1 MOL      0.078062
      9 C4          2.5790   -4.4270    2.2240 c         1 MOL      0.639357
     10 O2          3.1790   -5.3640    2.6690 o         1 MOL     -0.550348
     11 C5          3.4900   -2.1380    2.9310 c3        1 MOL     -0.218127
     12 C6          3.5660   -1.3930    1.5760 c         1 MOL      0.411710
     13 O3          4.1290   -0.2870    1.5640 o         1 MOL     -0.620795
     14 O4          2.9510   -1.7680    0.5500 o         1 MOL     -0.620795
     15 H4          2.8760   -3.6520    5.0420 hn        1 MOL      0.334237
     16 H5          1.4790   -2.5780    2.6400 h1        1 MOL     -0.059051
     17 H6          4.4200   -2.6740    3.0890 hc        1 MOL      0.124035
     18 H7          3.4890   -1.3520    3.6880 hc        1 MOL      0.124035
     19 N2          2.2120   -4.4300    0.9100 n         1 MOL     -0.333152
     20 C7          2.4530   -5.4620   -0.0500 c3        1 MOL     -0.050261
     21 C8          3.7160   -5.2980   -0.9130 c         1 MOL      0.542183
     22 O5          4.0110   -6.2660   -1.6460 o         1 MOL     -0.550081
     23 C9          1.1880   -5.6740   -0.9330 c3        1 MOL     -0.167975
     24 C10         0.9830   -4.4690   -1.8180 c3        1 MOL      0.184200
     25 C11        -0.3330   -4.7290   -2.5910 c3        1 MOL     -0.054140
     26 C12        -0.0730   -5.7020   -3.7490 c3        1 MOL      0.036303
     27 N3         -1.3860   -5.8880   -4.4430 n4        1 MOL     -0.278755
     28 H8          1.7340   -3.6270    0.5080 hn        1 MOL      0.206033
     29 H9          2.5650   -6.3380    0.5940 h1        1 MOL      0.112108
     30 H10         0.2630   -5.7900   -0.3740 hc        1 MOL      0.064580
     31 H11         1.4850   -6.4980   -1.5900 hc        1 MOL      0.064580
     32 H12         1.8170   -4.3190   -2.5050 hc        1 MOL     -0.038194
     33 H13         0.7910   -3.5470   -1.2770 hc        1 MOL     -0.038194
     34 H14        -0.7390   -3.8250   -3.0450 hc        1 MOL      0.019022
     35 H15        -1.1470   -5.1140   -1.9900 hc        1 MOL      0.019022
     36 H16         0.3960   -6.6010   -3.3580 hx        1 MOL      0.087577
     37 H17         0.6320   -5.2170   -4.4340 hx        1 MOL      0.087577
     38 H18        -1.7410   -5.0100   -4.7900 hn        1 MOL      0.257364
     39 H19        -1.2220   -6.4900   -5.2320 hn        1 MOL      0.257364
     40 H20        -2.0970   -6.3290   -3.8820 hn        1 MOL      0.257364
     41 N4          4.4240   -4.1690   -0.8340 n         1 MOL     -0.459743
     42 C13         5.5980   -3.7630   -1.7510 c3        1 MOL      0.089203
     43 C14         6.5660   -2.8130   -1.0450 c         1 MOL      0.357408
     44 O6          7.7080   -2.5760   -1.5030 o         1 MOL     -0.511998
     45 C15         5.0480   -3.0100   -2.9930 c3        1 MOL     -0.277314
     46 C16         4.0470   -1.8960   -2.6720 c         1 MOL      0.878247
     47 O7          4.4050   -0.9460   -1.9400 o         1 MOL     -0.774064
     48 O8          2.8560   -1.9980   -3.0250 o         1 MOL     -0.774064
     49 H21         4.0420   -3.4810   -0.2090 hn        1 MOL      0.267470
     50 H22         6.1000   -4.6880   -2.0350 h1        1 MOL      0.138477
     51 H23         4.7270   -3.6740   -3.7940 hc        1 MOL      0.080145
     52 H24         5.9160   -2.5310   -3.4490 hc        1 MOL      0.080145
     53 N5          6.2010   -2.4510    0.1730 n         1 MOL     -0.103659
     54 C17         7.0620   -1.7260    1.1170 c3        1 MOL     -0.252616
     55 C18         7.4690   -0.3640    0.6650 c         1 MOL      0.472782
     56 O9          8.3620    0.2800    1.2850 o         1 MOL     -0.550913
     57 H25         5.2450   -2.5890    0.4690 hn        1 MOL      0.097994
     58 H26         7.9480   -2.3300    1.3020 h1        1 MOL      0.147701
     59 H27         6.5030   -1.6100    2.0510 h1        1 MOL      0.147701
     60 N6          6.8630    0.1920   -0.4250 n         1 MOL     -0.104367
     61 C19         7.0670    1.5970   -0.8570 c3        1 MOL      0.003868
     62 C20         5.8000    2.3570   -0.6060 c         1 MOL      0.454650
     63 O10         4.7830    1.7670   -0.3600 o         1 MOL     -0.458868
     64 C21         7.4070    1.6270   -2.3390 c3        1 MOL     -0.179074
     65 C22         8.7890    1.1350   -2.6890 c         1 MOL      0.717321
     66 N7          9.2070   -0.0760   -2.3150 n         1 MOL     -0.857653
     67 O11         9.5120    1.8620   -3.3640 o         1 MOL     -0.589811
     68 H28         6.0770   -0.2990   -0.8430 hn        1 MOL      0.181669
     69 H29         7.8940    2.0150   -0.2870 h1        1 MOL      0.064725
     70 H30         7.3190    2.6220   -2.7590 hc        1 MOL      0.010248
     71 H31         6.6690    0.9660   -2.7900 hc        1 MOL      0.010248
     72 H32         8.6180   -0.6670   -1.7500 hn        1 MOL      0.390542
     73 H33        10.1600   -0.3400   -2.5280 hn        1 MOL      0.390542
     74 N8          5.8970    3.6540   -0.5480 n         1 MOL     -0.325709
     75 C23         4.9170    4.7130   -0.7320 c3        1 MOL     -0.105927
     76 C24         3.8540    4.7500    0.3170 c         1 MOL      0.607299
     77 O12         4.2370    4.5170    1.4720 o         1 MOL     -0.499522
     78 H34         6.8660    3.9340   -0.5140 hn        1 MOL      0.298669
     79 H35         4.4140    4.5770   -1.6910 h1        1 MOL      0.064463
     80 H36         5.4160    5.6800   -0.7490 h1        1 MOL      0.064463
     81 N9          2.6170    4.9040   -0.0530 n         1 MOL     -0.549477
     82 C25         1.6020    4.6940    0.9250 c3        1 MOL      0.056865
     83 C26         1.4700    3.1930    1.3010 c         1 MOL      0.636922
     84 O13         2.2270    2.3050    0.9010 o         1 MOL     -0.535419
     85 C27         0.2410    5.2820    0.5260 c3        1 MOL     -0.240746
     86 C28         0.1840    6.7590    0.1160 ca        1 MOL      0.194751
     87 C29        -0.3340    7.6660    1.1100 ca        1 MOL     -0.225771
     88 C30         0.6060    7.2230   -1.1070 ca        1 MOL     -0.225771
     89 C31        -0.3270    9.0380    0.8080 ca        1 MOL     -0.225811
     90 C32         0.4760    8.5540   -1.4230 ca        1 MOL     -0.225811
     91 C33         0.0780    9.5080   -0.4950 ca        1 MOL      0.308039
     92 O14        -0.0660   10.7670   -0.7920 oh        1 MOL     -0.431567
     93 H37         2.4240    5.0460   -1.0340 hn        1 MOL      0.312372
     94 H38         1.8470    5.1960    1.8660 h1        1 MOL      0.101936
     95 H39        -0.4270    5.1170    1.3790 hc        1 MOL      0.064144
     96 H40        -0.2030    4.8190   -0.3530 hc        1 MOL      0.064144
     97 H41        -0.6240    7.3620    2.1000 ha        1 MOL      0.146714
     98 H42         1.0990    6.5420   -1.7780 ha        1 MOL      0.146714
     99 H43        -0.5780    9.7820    1.5640 ha        1 MOL      0.145687
    100 H44         0.8370    8.9100   -2.3700 ha        1 MOL      0.145687
    101 H45        -0.2940   11.1960    0.0410 ho        1 MOL      0.361904
    102 N10         0.4920    2.9020    2.1570 n         1 MOL     -0.723225
    103 C34         0.0020    1.5540    2.6210 c3        1 MOL      0.007511
    104 C35        -0.2220    0.5180    1.5160 c         1 MOL      0.560803
    105 O15         0.6570    0.0480    0.8230 o         1 MOL     -0.386104
    106 C36         0.9260    0.9740    3.7260 c3        1 MOL      0.344187
    107 C37         0.4090   -0.1820    4.4890 c3        1 MOL     -0.020566
    108 C38         1.5630    1.9480    4.7290 c3        1 MOL     -0.210901
    109 C39        -0.9200    0.0920    5.2720 c3        1 MOL     -0.461323
    110 H46         0.0210    3.7320    2.4610 hn        1 MOL      0.378156
    111 H47        -0.9590    1.6710    3.1220 h1        1 MOL      0.058948
    112 H48         1.8140    0.5850    3.2270 hc        1 MOL     -0.021147
    113 H49         1.0710   -0.6540    5.2150 hc        1 MOL      0.065809
    114 H50         0.2160   -0.9010    3.6930 hc        1 MOL      0.065809
    115 H51         2.0830    2.7210    4.1700 hc        1 MOL      0.042915
    116 H52         0.7920    2.4280    5.3340 hc        1 MOL      0.042915
    117 H53         2.3220    1.5070    5.3770 hc        1 MOL      0.042915
    118 H54        -1.0710   -0.7750    5.9300 hc        1 MOL      0.114772
    119 H55        -0.7960    0.9870    5.8830 hc        1 MOL      0.114772
    120 H56        -1.7340    0.1310    4.5530 hc        1 MOL      0.114772
    121 N11        -1.4970    0.0440    1.4330 n         1 MOL     -0.480778
    122 C40        -1.8810   -1.0280    0.5330 c3        1 MOL     -0.127875
    123 C41        -3.3630   -1.0790    0.0980 c         1 MOL      0.593839
    124 O16        -3.6380   -2.0100   -0.6950 o         1 MOL     -0.578360
    125 C42        -1.5600   -2.3300    1.2100 c3        1 MOL      0.351272
    126 O17        -2.1900   -2.4160    2.5040 oh        1 MOL     -0.616176
    127 H57        -2.2550    0.5090    1.9090 hn        1 MOL      0.290350
    128 H58        -1.1850   -0.9770   -0.2950 h1        1 MOL      0.094578
    129 H59        -0.4790   -2.3050    1.3250 h1        1 MOL     -0.007538
    130 H60        -1.8640   -3.1990    0.6160 h1        1 MOL     -0.007538
    131 H61        -1.5580   -2.7620    3.1390 ho        1 MOL      0.383484
    132 N12        -4.1860   -0.1400    0.5180 n         1 MOL     -0.465312
    133 C43        -5.5910   -0.0500   -0.1280 c3        1 MOL      0.039198
    134 C44        -5.4660    0.4540   -1.5780 c         1 MOL      0.609444
    135 O18        -4.5170    1.1040   -1.9650 o         1 MOL     -0.583871
    136 C45        -6.5710    0.9320    0.5440 c3        1 MOL     -0.145841
    137 H62        -3.8630    0.6080    1.1090 hn        1 MOL      0.294315
    138 H63        -6.0970   -1.0150   -0.2270 h1        1 MOL      0.124618
    139 H64        -6.9410    1.7100   -0.1200 hc        1 MOL      0.062006
    140 H65        -7.3670    0.3830    1.0550 hc        1 MOL      0.062006
    141 H66        -6.0380    1.4810    1.3140 hc        1 MOL      0.062006
    142 N13        -6.4720    0.2260   -2.3660 n         1 MOL     -0.599064
    143 C46        -7.7210   -0.4780   -2.0690 c3        1 MOL      0.430804
    144 C47        -8.9000    0.2320   -2.8240 c         1 MOL      0.222681
    145 O19        -8.8130    0.6120   -4.0030 o         1 MOL     -0.474741
    146 C48        -7.7470   -1.8720   -2.5660 c3        1 MOL     -0.441539
    147 H67        -6.2580    0.4780   -3.3230 hn        1 MOL      0.323926
    148 H68        -8.0380   -0.5010   -1.0210 h1        1 MOL     -0.014945
    149 H69        -8.7670   -2.2450   -2.6710 hc        1 MOL      0.129673
    150 H70        -7.3530   -1.8600   -3.5810 hc        1 MOL      0.129673
    151 H71        -7.1230   -2.4390   -1.8730 hc        1 MOL      0.129673
    152 N14       -10.1590    0.2300   -2.2830 n         1 MOL     -0.269722
    153 C49       -10.6680   -0.1400   -0.9260 c3        1 MOL     -0.205921
    154 C50       -10.1340    0.8330    0.1520 c         1 MOL      0.462793
    155 O20        -9.8060    0.3860    1.2610 o         1 MOL     -0.481507
    156 C51       -12.1880   -0.4430   -0.8940 c3        1 MOL      0.413215
    157 C52       -12.4430   -1.4230    0.2230 c3        1 MOL     -0.254704
    158 C53       -13.8670   -1.9230    0.4790 c         1 MOL      0.707384
    159 O21       -14.7620   -1.7570   -0.3910 o         1 MOL     -0.667747
    160 O22       -14.0890   -2.5410    1.5550 o         1 MOL     -0.667747
    161 H72       -10.8790    0.7200   -2.7920 hn        1 MOL      0.254526
    162 H73       -10.0700   -1.0230   -0.6830 h1        1 MOL      0.082463
    163 H74       -12.5360   -0.8840   -1.8270 hc        1 MOL     -0.080921
    164 H75       -12.7830    0.4600   -0.7690 hc        1 MOL     -0.080921
    165 H76       -12.1330   -0.9100    1.1430 hc        1 MOL      0.038489
    166 H77       -11.8340   -2.3170    0.1460 hc        1 MOL      0.038489
    167 N15       -10.1380    2.1830   -0.0670 n         1 MOL     -0.262998
    168 C54        -9.5370    3.0530    0.9040 c3        1 MOL     -0.143747
    169 H78        -8.9130    3.7880    0.3960 h1        1 MOL      0.077367
    170 H79       -10.3170    3.5660    1.4660 h1        1 MOL      0.077367
    171 H80        -8.9230    2.4670    1.5880 h1        1 MOL      0.077367
    172 H81       -10.5090    2.5630   -0.9260 hn        1 MOL      0.244047
    173 Ca1         2.6020    0.4290   -0.7650 Ca        1 MOL      1.774123
    174 O23         0.7800    2.2650   -1.6500 oh        1 MOL     -0.883053
    175 H82        -0.1400    2.2420   -1.9200 ho        1 MOL      0.431922
    176 H83         1.1450    3.0210   -2.1050 ho        1 MOL      0.431922
    177 O24         3.7370    1.6900   -3.2590 oh        1 MOL     -0.883053
    178 H84         4.1240    2.5590   -3.3710 ho        1 MOL      0.431922
    179 H85         4.3240    1.1070   -3.7330 ho        1 MOL      0.431922
    180 O25         0.6950   -0.7840   -2.1660 oh        1 MOL     -0.883053
    181 H86         1.2610   -1.3470   -2.6910 ho        1 MOL      0.431922
    182 H87        -0.1940   -0.9800   -2.4630 ho        1 MOL      0.431922
@<TRIPOS>BOND
     1    1    2 1   
     2    1    4 1   
     3    1    5 1   
     4    1    6 1   
     5    2    3 2   
     6    2    7 1   
     7    7    8 1   
     8    7   15 1   
     9    8    9 1   
    10    8   11 1   
    11    8   16 1   
    12    9   10 2   
    13    9   19 1   
    14   11   12 1   
    15   11   17 1   
    16   11   18 1   
    17   12   13 1   
    18   12   14 1   
    19   19   20 1   
    20   19   28 1   
    21   20   21 1   
    22   20   23 1   
    23   20   29 1   
    24   21   22 2   
    25   21   41 1   
    26   23   24 1   
    27   23   30 1   
    28   23   31 1   
    29   24   25 1   
    30   24   32 1   
    31   24   33 1   
    32   25   26 1   
    33   25   34 1   
    34   25   35 1   
    35   26   27 1   
    36   26   36 1   
    37   26   37 1   
    38   27   38 1   
    39   27   39 1   
    40   27   40 1   
    41   41   42 1   
    42   41   49 1   
    43   42   43 1   
    44   42   45 1   
    45   42   50 1   
    46   43   44 2   
    47   43   53 1   
    48   45   46 1   
    49   45   51 1   
    50   45   52 1   
    51   46   47 1   
    52   46   48 1   
    53   53   54 1   
    54   53   57 1   
    55   54   55 1   
    56   54   58 1   
    57   54   59 1   
    58   55   56 2   
    59   55   60 1   
    60   60   61 1   
    61   60   68 1   
    62   61   62 1   
    63   61   64 1   
    64   61   69 1   
    65   62   63 2   
    66   62   74 1   
    67   64   65 1   
    68   64   70 1   
    69   64   71 1   
    70   65   66 1   
    71   65   67 2   
    72   66   72 1   
    73   66   73 1   
    74   74   75 1   
    75   74   78 1   
    76   75   76 1   
    77   75   79 1   
    78   75   80 1   
    79   76   77 2   
    80   76   81 1   
    81   81   82 1   
    82   81   93 1   
    83   82   83 1   
    84   82   85 1   
    85   82   94 1   
    86   83   84 2   
    87   83  102 1   
    88   85   86 1   
    89   85   95 1   
    90   85   96 1   
    91   86   87 ar  
    92   86   88 ar  
    93   87   89 ar  
    94   87   97 1   
    95   88   90 ar  
    96   88   98 1   
    97   89   91 ar  
    98   89   99 1   
    99   90   91 ar  
   100   90  100 1   
   101   91   92 1   
   102   92  101 1   
   103  102  103 1   
   104  102  110 1   
   105  103  104 1   
   106  103  106 1   
   107  103  111 1   
   108  104  105 2   
   109  104  121 1   
   110  106  107 1   
   111  106  108 1   
   112  106  112 1   
   113  107  109 1   
   114  107  113 1   
   115  107  114 1   
   116  108  115 1   
   117  108  116 1   
   118  108  117 1   
   119  109  118 1   
   120  109  119 1   
   121  109  120 1   
   122  121  122 1   
   123  121  127 1   
   124  122  123 1   
   125  122  125 1   
   126  122  128 1   
   127  123  124 2   
   128  123  132 1   
   129  125  126 1   
   130  125  129 1   
   131  125  130 1   
   132  126  131 1   
   133  132  133 1   
   134  132  137 1   
   135  133  134 1   
   136  133  136 1   
   137  133  138 1   
   138  134  135 2   
   139  134  142 1   
   140  136  139 1   
   141  136  140 1   
   142  136  141 1   
   143  142  143 1   
   144  142  147 1   
   145  143  144 1   
   146  143  146 1   
   147  143  148 1   
   148  144  145 2   
   149  144  152 1   
   150  146  149 1   
   151  146  150 1   
   152  146  151 1   
   153  152  153 1   
   154  152  161 1   
   155  153  154 1   
   156  153  156 1   
   157  153  162 1   
   158  154  155 2   
   159  154  167 1   
   160  156  157 1   
   161  156  163 1   
   162  156  164 1   
   163  157  158 1   
   164  157  165 1   
   165  157  166 1   
   166  158  159 1   
   167  158  160 1   
   168  167  168 1   
   169  167  172 1   
   170  168  169 1   
   171  168  170 1   
   172  168  171 1   
   173  174  175 1   
   174  174  176 1   
   175  177  178 1   
   176  177  179 1   
   177  180  181 1   
   178  180  182 1   
@<TRIPOS>SUBSTRUCTURE
     1 MOL         1 TEMP              0 ****  ****    0 ROOT
