@<TRIPOS>MOLECULE
MOL
  195   189     1     0     0
SMALL
resp


@<TRIPOS>ATOM
      1 C1          5.5540    0.0030    6.1900 c3        1 MOL     -0.175743
      2 C2          5.1380    0.2010    4.6580 c         1 MOL      0.631793
      3 O1          4.6740    1.2810    4.1880 o         1 MOL     -0.568663
      4 H1          5.8100   -1.0430    6.3640 hc        1 MOL      0.049830
      5 H2          6.4170    0.6300    6.4170 hc        1 MOL      0.049830
      6 H3          4.7200    0.2840    6.8330 hc        1 MOL      0.049830
      7 N1          5.2990   -0.8460    3.8000 n         1 MOL     -0.345114
      8 C3          5.1360   -0.9700    2.3790 c3        1 MOL     -0.026923
      9 C4          3.7130   -0.7180    1.8580 c         1 MOL     -0.061410
     10 O2          3.4500   -0.8560    0.6730 o         1 MOL     -0.048247
     11 C5          5.7750   -2.2590    1.9630 c3        1 MOL     -0.154295
     12 C6          7.2150   -2.5790    2.2810 c         1 MOL      0.775527
     13 O3          7.4990   -2.9630    3.4640 o         1 MOL     -0.719823
     14 O4          7.9910   -2.5390    1.3530 o         1 MOL     -0.719823
     15 H4          5.6670   -1.6980    4.1960 hn        1 MOL      0.189758
     16 H5          5.7480   -0.1400    2.0190 h1        1 MOL      0.216287
     17 H6          5.6730   -2.4110    0.8970 hc        1 MOL     -0.004646
     18 H7          5.1050   -2.9800    2.4280 hc        1 MOL     -0.004646
     19 N2          2.7660   -0.3340    2.7060 n         1 MOL     -0.459827
     20 C7          1.3720   -0.3680    2.3340 c3        1 MOL      0.184559
     21 C8          0.6330    0.9630    2.3840 c         1 MOL      0.273583
     22 O5          1.0000    1.8000    3.2210 o         1 MOL     -0.468501
     23 C9          0.6930   -1.4630    3.2210 c3        1 MOL     -0.198613
     24 C10         1.3550   -2.8420    3.0240 c3        1 MOL     -0.058478
     25 C11         0.5570   -3.9610    3.6410 c3        1 MOL     -0.054833
     26 C12         0.6190   -3.9340    5.1780 c3        1 MOL      0.082213
     27 N3          1.9870   -4.1910    5.8000 n4        1 MOL     -0.332225
     28 H8          3.0340    0.0820    3.5800 hn        1 MOL      0.292725
     29 H9          1.2150   -0.7320    1.3180 h1        1 MOL      0.279392
     30 H10        -0.3910   -1.5560    3.0930 hc        1 MOL      0.091013
     31 H11         0.7490   -1.1370    4.2580 hc        1 MOL      0.091013
     32 H12         2.3330   -2.9930    3.4820 hc        1 MOL      0.041433
     33 H13         1.2850   -3.1070    1.9640 hc        1 MOL      0.041433
     34 H14         0.9820   -4.9170    3.3410 hc        1 MOL      0.056492
     35 H15        -0.4870   -3.8850    3.3210 hc        1 MOL      0.056492
     36 H16        -0.0310   -4.6690    5.6480 hx        1 MOL      0.060101
     37 H17         0.2420   -2.9500    5.4610 hx        1 MOL      0.060101
     38 H18         1.9170   -4.3420    6.8010 hn        1 MOL      0.310074
     39 H19         2.4080   -4.9810    5.3470 hn        1 MOL      0.310074
     40 H20         2.5410   -3.3490    5.8010 hn        1 MOL      0.310074
     41 N4         -0.3460    1.3240    1.6370 n         1 MOL     -0.101983
     42 C13        -1.0940    0.6140    0.5440 c3        1 MOL     -0.711585
     43 C14        -1.7330   -0.7480    0.7630 c         1 MOL      0.708292
     44 O6         -1.2180   -1.7080    0.1980 o         1 MOL     -0.498381
     45 C15        -0.2720    0.5790   -0.7670 c3        1 MOL     -0.378776
     46 C16         0.3070    1.8770   -1.2440 c         1 MOL      0.897218
     47 O7         -0.1190    2.9700   -0.7620 o         1 MOL     -0.779131
     48 O8          1.1450    1.8880   -2.1950 o         1 MOL     -0.779131
     49 H21        -0.6440    2.2620    1.8400 hn        1 MOL      0.210141
     50 H22        -2.0320    1.1360    0.3540 h1        1 MOL      0.198990
     51 H23        -0.8630    0.2310   -1.6230 hc        1 MOL      0.181364
     52 H24         0.5600   -0.1150   -0.6280 hc        1 MOL      0.181364
     53 N5         -2.6760   -0.9000    1.6920 n         1 MOL     -0.620758
     54 C17        -3.5380    0.0760    2.3170 c3        1 MOL      0.469419
     55 C18        -4.8310   -0.6240    2.8740 c         1 MOL      0.297734
     56 O9         -4.9000   -1.8560    3.1160 o         1 MOL     -0.497417
     57 H25        -2.8680   -1.8740    1.8780 hn        1 MOL      0.291533
     58 H26        -3.7900    0.7450    1.4900 h1        1 MOL      0.008470
     59 H27        -3.1000    0.6740    3.1130 h1        1 MOL      0.008470
     60 N6         -5.8420    0.1390    3.2310 n         1 MOL     -0.361142
     61 C19        -5.9960    1.5500    2.9830 c3        1 MOL     -0.042775
     62 C20        -7.0400    1.7260    1.8730 c         1 MOL      0.424271
     63 O10        -7.9440    0.8860    1.7850 o         1 MOL     -0.408516
     64 C21        -6.4300    2.2970    4.3230 c3        1 MOL     -0.020143
     65 C22        -7.5270    1.4630    4.9970 c         1 MOL      0.654859
     66 O11        -7.1310    0.4980    5.6300 o         1 MOL     -0.668261
     67 O12        -8.7400    1.7030    4.7930 o         1 MOL     -0.668261
     68 H28        -6.6280   -0.3220    3.6810 hn        1 MOL      0.356141
     69 H29        -5.0590    1.9980    2.6490 h1        1 MOL     -0.011166
     70 H30        -6.7860    3.2930    4.0710 hc        1 MOL     -0.019608
     71 H31        -5.6510    2.3870    5.0750 hc        1 MOL     -0.019608
     72 N7         -6.8970    2.7570    1.0140 n         1 MOL     -0.261463
     73 C23        -7.8830    3.0590   -0.0550 c3        1 MOL     -0.254526
     74 C24        -7.6960    2.2740   -1.3480 c         1 MOL      0.539367
     75 O13        -8.6090    1.8140   -1.9980 o         1 MOL     -0.517404
     76 H32        -6.1190    3.3890    1.0830 hn        1 MOL      0.236499
     77 H33        -7.8710    4.1340   -0.2760 h1        1 MOL      0.147541
     78 H34        -8.8570    2.8090    0.3780 h1        1 MOL      0.147541
     79 N8         -6.4540    1.8190   -1.5960 n         1 MOL     -0.363938
     80 C25        -6.1160    0.6400   -2.5010 c3        1 MOL     -0.202049
     81 C26        -5.1630   -0.3420   -1.8280 c         1 MOL      0.479787
     82 O14        -4.0850    0.0490   -1.3540 o         1 MOL     -0.442288
     83 C27        -5.6950    1.0710   -3.9020 c3        1 MOL      0.309954
     84 C28        -5.4450   -0.1390   -4.8260 c3        1 MOL     -0.217597
     85 O15        -4.4760    1.7800   -3.8010 oh        1 MOL     -0.539538
     86 H35        -5.7470    2.2060   -0.9900 hn        1 MOL      0.194374
     87 H36        -7.0410    0.0580   -2.5420 h1        1 MOL      0.161645
     88 H37        -6.4500    1.6640   -4.4190 h1        1 MOL      0.042583
     89 H38        -4.4290    2.0820   -2.8930 ho        1 MOL      0.262551
     90 H39        -4.6870   -0.7780   -4.3770 hc        1 MOL      0.073568
     91 H40        -6.3530   -0.7370   -4.7580 hc        1 MOL      0.073568
     92 H41        -5.1520    0.1660   -5.8380 hc        1 MOL      0.073568
     93 N9         -5.6200   -1.6040   -1.6220 n         1 MOL     -0.310359
     94 C29        -4.9270   -2.7330   -1.0460 c3        1 MOL     -0.353860
     95 C30        -3.9400   -3.1870   -2.1650 c         1 MOL      0.403387
     96 O16        -4.4720   -3.6940   -3.1280 o         1 MOL     -0.473866
     97 C31        -5.9400   -3.8540   -0.6070 c3        1 MOL      0.210951
     98 C32        -6.7010   -3.3220    0.7140 c3        1 MOL      0.017595
     99 C33        -5.1710   -5.1700   -0.3720 c3        1 MOL     -0.259045
    100 C34        -7.8770   -4.2350    1.0300 c3        1 MOL     -0.157899
    101 H42        -6.5760   -1.7710   -1.9090 hn        1 MOL      0.307615
    102 H43        -4.2770   -2.4790   -0.2020 h1        1 MOL      0.163558
    103 H44        -6.7340   -4.0410   -1.3430 hc        1 MOL      0.011936
    104 H45        -7.2110   -2.3950    0.4210 hc        1 MOL      0.029102
    105 H46        -6.0000   -3.2490    1.5430 hc        1 MOL      0.029102
    106 H47        -4.8480   -5.6280   -1.3050 hc        1 MOL      0.070548
    107 H48        -4.3220   -5.0180    0.2930 hc        1 MOL      0.070548
    108 H49        -5.7530   -5.9770    0.0850 hc        1 MOL      0.070548
    109 H50        -7.5380   -5.2180    1.3320 hc        1 MOL      0.040464
    110 H51        -8.4010   -3.7360    1.8360 hc        1 MOL      0.040464
    111 H52        -8.6190   -4.3300    0.2290 hc        1 MOL      0.040464
    112 N10        -2.6380   -2.8010   -2.1690 n         1 MOL     -0.002885
    113 C35        -1.7440   -3.4390   -3.1560 c3        1 MOL     -0.322973
    114 C36        -0.3230   -3.6510   -2.7570 c         1 MOL      0.525243
    115 O17         0.3490   -4.4290   -3.4570 o         1 MOL     -0.575017
    116 C37        -1.7330   -2.5550   -4.4310 c3        1 MOL      0.454064
    117 C38        -1.4960   -1.0360   -4.3110 c3        1 MOL     -0.195360
    118 O18        -2.9820   -2.5990   -5.0450 oh        1 MOL     -0.661422
    119 H53        -2.3210   -2.4340   -1.2810 hn        1 MOL      0.104489
    120 H54        -2.1360   -4.4130   -3.4430 h1        1 MOL      0.161894
    121 H55        -0.9600   -2.9820   -5.0730 h1        1 MOL      0.041104
    122 H56        -3.6320   -2.7570   -4.3600 ho        1 MOL      0.343206
    123 H57        -1.1710   -0.7860   -5.3220 hc        1 MOL      0.055128
    124 H58        -2.4420   -0.5640   -4.0360 hc        1 MOL      0.055128
    125 H59        -0.6940   -0.9030   -3.5960 hc        1 MOL      0.055128
    126 N11         0.2300   -3.0370   -1.7390 n         1 MOL     -0.333334
    127 C39         1.6650   -2.9540   -1.3360 c3        1 MOL     -0.021229
    128 C40         2.3910   -2.1160   -2.4420 c         1 MOL      0.464949
    129 O19         2.0790   -2.1960   -3.6110 o         1 MOL     -0.485411
    130 C41         2.3080   -4.3100   -1.0370 c3        1 MOL      0.258399
    131 C42         3.6710   -4.2680   -0.3560 c3        1 MOL     -0.072143
    132 O20         2.6800   -4.9590   -2.1990 oh        1 MOL     -0.655624
    133 H60        -0.4520   -2.5660   -1.1500 hn        1 MOL      0.158257
    134 H61         1.7600   -2.3070   -0.4640 h1        1 MOL      0.038569
    135 H62         1.6910   -4.9330   -0.3930 h1        1 MOL     -0.015882
    136 H63         1.8950   -4.9370   -2.7520 ho        1 MOL      0.451631
    137 H64         3.5450   -3.8720    0.6550 hc        1 MOL      0.045377
    138 H65         4.1240   -5.2510   -0.2350 hc        1 MOL      0.045377
    139 H66         4.2800   -3.6370   -1.0090 hc        1 MOL      0.045377
    140 N12         3.3900   -1.3310   -2.0990 n         1 MOL     -0.061424
    141 C43         4.0590   -0.3720   -3.0440 c3        1 MOL     -0.460032
    142 C44         4.4910    1.0440   -2.4000 c         1 MOL      0.842971
    143 O21         5.1070    1.8960   -3.0870 o         1 MOL     -0.611391
    144 C45         5.2530   -1.0060   -3.7330 c3        1 MOL     -0.155725
    145 C46         6.3690   -1.5220   -2.7570 c3        1 MOL      0.152258
    146 C47         7.5880   -2.1460   -3.4580 c3        1 MOL     -0.309951
    147 C48         8.7980   -2.4020   -2.3980 c3        1 MOL     -0.044408
    148 N13         9.5410   -1.1320   -2.1070 n4        1 MOL     -0.411031
    149 H67         3.5270   -1.2090   -1.1020 hn        1 MOL     -0.003562
    150 H68         3.3360   -0.1380   -3.8260 h1        1 MOL      0.197402
    151 H69         5.6490   -0.3650   -4.5080 hc        1 MOL      0.091912
    152 H70         5.0150   -1.8330   -4.3900 hc        1 MOL      0.091912
    153 H71         6.0300   -2.3260   -2.1130 hc        1 MOL      0.021047
    154 H72         6.5740   -0.6570   -2.1280 hc        1 MOL      0.021047
    155 H73         7.9090   -1.6140   -4.3460 hc        1 MOL      0.116786
    156 H74         7.3800   -3.1890   -3.7200 hc        1 MOL      0.116786
    157 H75         9.5010   -3.1320   -2.7840 hx        1 MOL      0.134143
    158 H76         8.3770   -2.8420   -1.4980 hx        1 MOL      0.134143
    159 H77         9.8370   -0.5750   -2.8920 hn        1 MOL      0.341738
    160 H78         8.9720   -0.6130   -1.4490 hn        1 MOL      0.341738
    161 H79        10.3180   -1.3970   -1.5160 hn        1 MOL      0.341738
    162 N14         4.2450    1.2060   -1.0850 n         1 MOL      0.042252
    163 C49         4.5510    2.5360   -0.4080 c3        1 MOL     -1.347344
    164 C50         6.0070    2.5570    0.1260 c         1 MOL      0.968608
    165 O22         6.5120    1.6030    0.6850 o         1 MOL     -0.618238
    166 C51         3.5950    2.6980    0.7610 c3        1 MOL      0.064628
    167 C52         3.6000    4.1610    1.3230 c3        1 MOL     -0.562954
    168 C53         3.6140    5.3580    0.3990 c         1 MOL      1.046497
    169 O23         2.5500    6.0690    0.3210 o         1 MOL     -0.826683
    170 O24         4.7480    5.7140   -0.0440 o         1 MOL     -0.826683
    171 H80         3.5930    0.6240   -0.5890 hn        1 MOL      0.029103
    172 H81         4.4080    3.3220   -1.1550 h1        1 MOL      0.279256
    173 H82         3.9170    2.0380    1.5670 hc        1 MOL      0.185808
    174 H83         2.5990    2.3750    0.4470 hc        1 MOL      0.185808
    175 H84         4.5340    4.3310    1.8610 hc        1 MOL      0.139289
    176 H85         2.6880    4.3100    1.8920 hc        1 MOL      0.139289
    177 N15         6.6790    3.6720    0.0410 n         1 MOL     -0.436186
    178 C54         8.0400    3.9270    0.4040 c3        1 MOL     -0.015788
    179 H86         8.3250    4.9230    0.0670 h1        1 MOL      0.045928
    180 H87         8.1450    3.8670    1.4870 h1        1 MOL      0.045928
    181 H88         8.6870    3.1870   -0.0660 h1        1 MOL      0.045928
    182 H89         6.0240    4.3770   -0.2790 hn        1 MOL      0.485384
    183 Ca1         0.2340    5.4140   -0.7260 Ca        1 MOL      1.721014
    184 O25        -2.5200    5.3130   -0.4070 oh        1 MOL     -0.867377
    185 H90        -2.7330    4.5950    0.2030 ho        1 MOL      0.441262
    186 H91        -2.5900    4.9110   -1.2730 ho        1 MOL      0.441262
    187 O26         0.7010    7.3830   -2.5040 oh        1 MOL     -0.867377
    188 H92         0.5080    7.3900   -3.4360 ho        1 MOL      0.441262
    189 H93         0.5890    8.2860   -2.2230 ho        1 MOL      0.441262
    190 O27        -1.4180    4.3950   -2.7490 oh        1 MOL     -0.867377
    191 H94        -1.6480    3.4880   -2.5480 ho        1 MOL      0.441262
    192 H95        -1.7060    4.5140   -3.6560 ho        1 MOL      0.441262
    193 O28         2.1480    4.2670   -2.1420 oh        1 MOL     -0.867377
    194 H96         2.7770    4.4070   -2.8600 ho        1 MOL      0.441262
    195 H97         1.8570    3.3620   -2.2630 ho        1 MOL      0.441262
@<TRIPOS>BOND
     1    1    2 1   
     2    1    4 1   
     3    1    5 1   
     4    1    6 1   
     5    2    3 2   
     6    2    7 1   
     7    7    8 1   
     8    7   15 1   
     9    8    9 1   
    10    8   11 1   
    11    8   16 1   
    12    9   10 2   
    13    9   19 1   
    14   11   12 1   
    15   11   17 1   
    16   11   18 1   
    17   12   13 1   
    18   12   14 1   
    19   19   20 1   
    20   19   28 1   
    21   20   21 1   
    22   20   23 1   
    23   20   29 1   
    24   21   22 2   
    25   21   41 1   
    26   23   24 1   
    27   23   30 1   
    28   23   31 1   
    29   24   25 1   
    30   24   32 1   
    31   24   33 1   
    32   25   26 1   
    33   25   34 1   
    34   25   35 1   
    35   26   27 1   
    36   26   36 1   
    37   26   37 1   
    38   27   38 1   
    39   27   39 1   
    40   27   40 1   
    41   41   42 1   
    42   41   49 1   
    43   42   43 1   
    44   42   45 1   
    45   42   50 1   
    46   43   44 2   
    47   43   53 1   
    48   45   46 1   
    49   45   51 1   
    50   45   52 1   
    51   46   47 1   
    52   46   48 1   
    53   53   54 1   
    54   53   57 1   
    55   54   55 1   
    56   54   58 1   
    57   54   59 1   
    58   55   56 2   
    59   55   60 1   
    60   60   61 1   
    61   60   68 1   
    62   61   62 1   
    63   61   64 1   
    64   61   69 1   
    65   62   63 2   
    66   62   72 1   
    67   64   65 1   
    68   64   70 1   
    69   64   71 1   
    70   65   66 1   
    71   65   67 1   
    72   72   73 1   
    73   72   76 1   
    74   73   74 1   
    75   73   77 1   
    76   73   78 1   
    77   74   75 2   
    78   74   79 1   
    79   79   80 1   
    80   79   86 1   
    81   80   81 1   
    82   80   83 1   
    83   80   87 1   
    84   81   82 2   
    85   81   93 1   
    86   83   84 1   
    87   83   85 1   
    88   83   88 1   
    89   84   90 1   
    90   84   91 1   
    91   84   92 1   
    92   85   89 1   
    93   93   94 1   
    94   93  101 1   
    95   94   95 1   
    96   94   97 1   
    97   94  102 1   
    98   95   96 2   
    99   95  112 1   
   100   97   98 1   
   101   97   99 1   
   102   97  103 1   
   103   98  100 1   
   104   98  104 1   
   105   98  105 1   
   106   99  106 1   
   107   99  107 1   
   108   99  108 1   
   109  100  109 1   
   110  100  110 1   
   111  100  111 1   
   112  112  113 1   
   113  112  119 1   
   114  113  114 1   
   115  113  116 1   
   116  113  120 1   
   117  114  115 2   
   118  114  126 1   
   119  116  117 1   
   120  116  118 1   
   121  116  121 1   
   122  117  123 1   
   123  117  124 1   
   124  117  125 1   
   125  118  122 1   
   126  126  127 1   
   127  126  133 1   
   128  127  128 1   
   129  127  130 1   
   130  127  134 1   
   131  128  129 2   
   132  128  140 1   
   133  130  131 1   
   134  130  132 1   
   135  130  135 1   
   136  131  137 1   
   137  131  138 1   
   138  131  139 1   
   139  132  136 1   
   140  140  141 1   
   141  140  149 1   
   142  141  142 1   
   143  141  144 1   
   144  141  150 1   
   145  142  143 2   
   146  142  162 1   
   147  144  145 1   
   148  144  151 1   
   149  144  152 1   
   150  145  146 1   
   151  145  153 1   
   152  145  154 1   
   153  146  147 1   
   154  146  155 1   
   155  146  156 1   
   156  147  148 1   
   157  147  157 1   
   158  147  158 1   
   159  148  159 1   
   160  148  160 1   
   161  148  161 1   
   162  162  163 1   
   163  162  171 1   
   164  163  164 1   
   165  163  166 1   
   166  163  172 1   
   167  164  165 2   
   168  164  177 1   
   169  166  167 1   
   170  166  173 1   
   171  166  174 1   
   172  167  168 1   
   173  167  175 1   
   174  167  176 1   
   175  168  169 1   
   176  168  170 1   
   177  177  178 1   
   178  177  182 1   
   179  178  179 1   
   180  178  180 1   
   181  178  181 1   
   182  184  185 1   
   183  184  186 1   
   184  187  188 1   
   185  187  189 1   
   186  190  191 1   
   187  190  192 1   
   188  193  194 1   
   189  193  195 1   
@<TRIPOS>SUBSTRUCTURE
     1 MOL         1 TEMP              0 ****  ****    0 ROOT
