@<TRIPOS>MOLECULE
MOL
  189   185     1     0     0
SMALL
resp


@<TRIPOS>ATOM
      1 C1          4.2520    3.9300   -4.0940 c3        1 MOL     -0.332863
      2 C2          4.9440    3.3010   -2.9090 c         1 MOL      0.749940
      3 O1          4.3730    3.1360   -1.8200 o         1 MOL     -0.634875
      4 H1          3.1720    3.8330   -3.9770 hc        1 MOL      0.085443
      5 H2          4.5170    4.9850   -4.1530 hc        1 MOL      0.085443
      6 H3          4.5640    3.4240   -5.0080 hc        1 MOL      0.085443
      7 N1          6.1420    2.7170   -3.1730 n         1 MOL     -0.764109
      8 C3          6.8100    1.7060   -2.3320 c3        1 MOL      0.359936
      9 C4          5.9260    0.5420   -1.9510 c         1 MOL      0.201956
     10 O2          5.3820    0.4620   -0.8340 o         1 MOL     -0.477761
     11 C5          7.7380    2.2480   -1.2380 c3        1 MOL     -0.374359
     12 C6          7.1850    3.4890   -0.5170 c         1 MOL      0.915090
     13 O3          6.3120    3.2920    0.3460 o         1 MOL     -0.760834
     14 O4          7.7860    4.5950   -0.6220 o         1 MOL     -0.760834
     15 H4          6.4180    2.7490   -4.1410 hn        1 MOL      0.356975
     16 H5          7.5070    1.3730   -3.1000 h1        1 MOL      0.019697
     17 H6          8.7060    2.4680   -1.6970 hc        1 MOL      0.075542
     18 H7          7.9510    1.4360   -0.5470 hc        1 MOL      0.075542
     19 N2          5.6330   -0.3260   -2.9300 n         1 MOL     -0.364271
     20 C7          4.7740   -1.4580   -2.8320 c3        1 MOL      0.117520
     21 C8          5.3010   -2.5450   -1.8780 c         1 MOL      0.330907
     22 O5          5.6250   -3.6210   -2.3660 o         1 MOL     -0.539380
     23 C9          3.2590   -1.1940   -2.7430 c3        1 MOL      0.335949
     24 C10         2.3760   -2.3630   -3.1270 c3        1 MOL     -0.184993
     25 C11         2.8500   -0.0130   -3.6280 c3        1 MOL     -0.343666
     26 C12         2.7140   -3.0460   -4.4800 c3        1 MOL     -0.195522
     27 H8          6.0880   -0.2020   -3.8210 hn        1 MOL      0.253503
     28 H9          4.8760   -1.8890   -3.8340 h1        1 MOL      0.042182
     29 H10         2.9820   -1.0060   -1.7050 hc        1 MOL     -0.132304
     30 H11         1.3210   -2.1420   -2.9880 hc        1 MOL      0.104097
     31 H12         2.4900   -3.0610   -2.3020 hc        1 MOL      0.104097
     32 H13         3.1280   -0.0570   -4.6740 hc        1 MOL      0.066334
     33 H14         1.7860    0.1850   -3.4740 hc        1 MOL      0.066334
     34 H15         3.3010    0.9220   -3.2720 hc        1 MOL      0.066334
     35 H16         1.9860   -3.8320   -4.7030 hc        1 MOL      0.033882
     36 H17         2.7260   -2.3750   -5.3400 hc        1 MOL      0.033882
     37 H18         3.6650   -3.5800   -4.5390 hc        1 MOL      0.033882
     38 N3          5.7110   -2.3260   -0.5840 n         1 MOL     -0.053832
     39 C13         6.5110   -3.2830    0.2140 c3        1 MOL     -0.043929
     40 C14         5.7270   -4.6200    0.3830 c         1 MOL      0.643658
     41 O6          6.3260   -5.6580    0.1430 o         1 MOL     -0.614859
     42 C15         7.0740   -2.7680    1.5980 c3        1 MOL     -0.344886
     43 C16         7.7760   -1.4350    1.4140 c         1 MOL      0.890681
     44 O7          7.4120   -0.4090    2.0090 o         1 MOL     -0.725369
     45 O8          8.7490   -1.3160    0.7000 o         1 MOL     -0.725369
     46 H19         5.6800   -1.3700   -0.2290 hn        1 MOL      0.231086
     47 H20         7.3910   -3.5120   -0.3990 h1        1 MOL      0.061482
     48 H21         7.7510   -3.5050    2.0270 hc        1 MOL      0.074016
     49 H22         6.2530   -2.6100    2.2890 hc        1 MOL      0.074016
     50 N4          4.4500   -4.6970    0.7640 n         1 MOL     -0.534275
     51 C17         3.5950   -3.5970    1.1810 c3        1 MOL      0.048747
     52 C18         2.4200   -4.1540    2.0810 c         1 MOL      0.576339
     53 O9          2.1870   -5.3820    2.1230 o         1 MOL     -0.593815
     54 H23         4.0760   -5.6190    0.9530 hn        1 MOL      0.281862
     55 H24         3.2330   -3.0880    0.2940 h1        1 MOL      0.064562
     56 H25         4.1040   -2.8770    1.8210 h1        1 MOL      0.064562
     57 N5          1.6220   -3.3030    2.7820 n         1 MOL     -0.611630
     58 C19         1.9430   -1.8630    2.9940 c3        1 MOL      0.553833
     59 C20         2.2600   -0.9500    1.7440 c         1 MOL      0.183903
     60 O10         3.3130   -0.3680    1.6360 o         1 MOL     -0.599800
     61 C21         2.8570   -1.8280    4.2250 c3        1 MOL     -0.295240
     62 C22         3.2130   -0.4230    4.5990 c         1 MOL      0.694855
     63 O11         4.4430   -0.1630    4.6480 o         1 MOL     -0.676595
     64 O12         2.3140    0.4160    4.6850 o         1 MOL     -0.676595
     65 H26         0.6820   -3.5310    3.0940 hn        1 MOL      0.266808
     66 H27         1.0280   -1.4550    3.4210 h1        1 MOL     -0.034722
     67 H28         3.7700   -2.3970    4.0450 hc        1 MOL      0.043891
     68 H29         2.3030   -2.2560    5.0610 hc        1 MOL      0.043891
     69 N6          1.3140   -0.8440    0.8020 n         1 MOL     -0.158752
     70 C23        -0.1200   -1.1950    0.8300 c3        1 MOL     -0.093370
     71 C24        -0.4410   -2.5280    0.1590 c         1 MOL      0.441669
     72 O13         0.2560   -2.9890   -0.7290 o         1 MOL     -0.518212
     73 H30         1.4960   -0.4160   -0.0980 hn        1 MOL      0.283054
     74 H31        -0.5840   -0.3270    0.3650 h1        1 MOL      0.071149
     75 H32        -0.5560   -1.1280    1.8270 h1        1 MOL      0.071149
     76 N7         -1.5480   -3.1360    0.5430 n         1 MOL     -0.345773
     77 C25        -2.0330   -4.4920    0.0840 c3        1 MOL      0.067301
     78 C26        -2.8670   -4.4310   -1.2260 c         1 MOL      0.374796
     79 O14        -3.2970   -5.4710   -1.7230 o         1 MOL     -0.524390
     80 C27        -2.8400   -5.1170    1.2320 c3        1 MOL      0.085495
     81 C28        -1.9490   -5.4290    2.4440 c3        1 MOL     -0.253541
     82 C29        -2.0270   -4.2880    3.4690 c         1 MOL      0.516753
     83 N8         -3.0940   -4.1740    4.1600 n         1 MOL     -0.663634
     84 O15        -1.0720   -3.5550    3.7350 o         1 MOL     -0.474796
     85 H33        -2.0280   -2.6940    1.3250 hn        1 MOL      0.256849
     86 H34        -1.2350   -5.1950   -0.1310 h1        1 MOL      0.120673
     87 H35        -3.2110   -6.1000    0.9330 hc        1 MOL     -0.014614
     88 H36        -3.6800   -4.4590    1.4460 hc        1 MOL     -0.014614
     89 H37        -0.9160   -5.5970    2.1210 hc        1 MOL      0.107731
     90 H38        -2.1690   -6.3830    2.9160 hc        1 MOL      0.107731
     91 H39        -3.7290   -4.9550    4.2000 hn        1 MOL      0.337106
     92 H40        -3.0730   -3.3680    4.7710 hn        1 MOL      0.337106
     93 N9         -3.1130   -3.2590   -1.7420 n         1 MOL     -0.140121
     94 C30        -3.7440   -3.0150   -3.0240 c3        1 MOL     -0.187369
     95 C31        -5.0160   -2.1750   -3.0020 c         1 MOL      0.688264
     96 O16        -5.5820   -2.0470   -4.1210 o         1 MOL     -0.572431
     97 C32        -2.8300   -2.4610   -3.9810 c3        1 MOL      0.041125
     98 C33        -1.7450   -3.5100   -4.3270 c3        1 MOL     -0.154405
     99 C34        -2.0700   -1.1950   -3.4640 c3        1 MOL     -0.154405
    100 H41        -2.7830   -2.4130   -1.3080 hn        1 MOL      0.098271
    101 H42        -4.0330   -3.9780   -3.4500 h1        1 MOL      0.147921
    102 H43        -3.2420   -2.2220   -4.9660 hc        1 MOL      0.038719
    103 H44        -1.1430   -3.6580   -3.4280 hc        1 MOL      0.047790
    104 H45        -2.2010   -4.4550   -4.6190 hc        1 MOL      0.047790
    105 H46        -1.0410   -3.2370   -5.1060 hc        1 MOL      0.047790
    106 H47        -2.7880   -0.3960   -3.2570 hc        1 MOL      0.047790
    107 H48        -1.4170   -1.4200   -2.6130 hc        1 MOL      0.047790
    108 H49        -1.3210   -0.8080   -4.1580 hc        1 MOL      0.047790
    109 N10        -5.5590   -1.7460   -1.8460 n         1 MOL     -0.438066
    110 C35        -6.8380   -1.0220   -1.7600 c3        1 MOL     -0.036064
    111 C36        -6.8060    0.3500   -1.0390 c         1 MOL      0.640726
    112 O17        -7.7230    1.1240   -1.3350 o         1 MOL     -0.562505
    113 C37        -7.8130   -1.9560   -1.0130 c3        1 MOL     -0.404799
    114 C38        -8.0740   -3.2000   -1.8120 c         1 MOL      0.550300
    115 N11        -8.5050   -3.0770   -3.0650 n         1 MOL     -0.691995
    116 O18        -7.8050   -4.3150   -1.3170 o         1 MOL     -0.534846
    117 H50        -5.0660   -2.0000   -1.0020 hn        1 MOL      0.286393
    118 H51        -7.2240   -0.8940   -2.7650 h1        1 MOL      0.100177
    119 H52        -8.7700   -1.4840   -0.7900 hc        1 MOL      0.159696
    120 H53        -7.5830   -2.2460    0.0140 hc        1 MOL      0.159696
    121 H54        -8.7800   -2.1330   -3.3040 hn        1 MOL      0.357638
    122 H55        -8.7040   -3.9220   -3.5690 hn        1 MOL      0.357638
    123 N12        -5.8590    0.7340   -0.1850 n         1 MOL     -0.588319
    124 C39        -5.8190    1.9680    0.6850 c3        1 MOL      0.476858
    125 C40        -4.3560    2.4930    0.8820 c         1 MOL      0.301563
    126 O19        -3.4140    1.8240    0.4340 o         1 MOL     -0.494161
    127 C41        -6.4660    1.6100    2.0230 c3        1 MOL     -0.050856
    128 C42        -7.9550    1.4170    1.9870 ca        1 MOL     -0.064343
    129 C43        -8.7830    2.5650    2.0500 ca        1 MOL     -0.089931
    130 C44        -8.4710    0.1440    1.7530 ca        1 MOL     -0.089931
    131 C45       -10.1830    2.3630    2.0000 ca        1 MOL     -0.339106
    132 C46        -9.8370   -0.0540    1.6470 ca        1 MOL     -0.339106
    133 C47       -10.6950    1.0670    1.7740 ca        1 MOL      0.416587
    134 O20       -12.0630    0.9620    1.7020 oh        1 MOL     -0.536438
    135 H56        -5.1000    0.0920    0.0110 hn        1 MOL      0.268099
    136 H57        -6.3970    2.7700    0.2270 h1        1 MOL     -0.023166
    137 H58        -6.2730    2.3020    2.8400 hc        1 MOL      0.035619
    138 H59        -6.0280    0.6730    2.3610 hc        1 MOL      0.035619
    139 H60        -8.3740    3.5630    2.1160 ha        1 MOL      0.098797
    140 H61        -7.8000   -0.6930    1.6530 ha        1 MOL      0.098797
    141 H62       -10.8620    3.1950    2.1290 ha        1 MOL      0.149424
    142 H63       -10.1940   -1.0770    1.5600 ha        1 MOL      0.149424
    143 H64       -12.4920    1.8140    1.7810 ho        1 MOL      0.362633
    144 N13        -4.1940    3.7210    1.4410 n         1 MOL     -0.606136
    145 C48        -2.9740    4.5420    1.6070 c3        1 MOL      0.450157
    146 C49        -2.1930    4.8790    0.3050 c         1 MOL      0.140258
    147 O21        -1.5580    5.9320    0.3210 o         1 MOL     -0.456036
    148 C50        -2.0540    3.8590    2.5670 c3        1 MOL      0.256472
    149 C51        -1.5130    4.6050    3.8150 c3        1 MOL     -0.345143
    150 C52        -0.4020    3.7570    4.4220 c         1 MOL      0.758626
    151 O22         0.8020    3.9470    4.1610 o         1 MOL     -0.682833
    152 O23        -0.6920    2.8000    5.1130 o         1 MOL     -0.682833
    153 H65        -5.0810    4.0700    1.7770 hn        1 MOL      0.287140
    154 H66        -3.2860    5.5080    1.9970 h1        1 MOL     -0.027384
    155 H67        -1.2900    3.3510    1.9840 hc        1 MOL     -0.044066
    156 H68        -2.6500    3.1660    3.1640 hc        1 MOL     -0.044066
    157 H69        -2.2720    4.7790    4.5700 hc        1 MOL      0.020548
    158 H70        -1.0600    5.5530    3.5340 hc        1 MOL      0.020548
    159 N14        -2.0440    4.0300   -0.7290 n         1 MOL     -0.246030
    160 C53        -0.9920    4.1920   -1.6760 c3        1 MOL     -0.056012
    161 C54        -1.2990    5.1090   -2.8350 c         1 MOL      0.478935
    162 O24        -0.4240    5.6130   -3.4870 o         1 MOL     -0.528350
    163 C55        -0.4160    2.9160   -2.2980 c3        1 MOL     -0.204404
    164 C56        -0.0740    1.8360   -1.3370 c3        1 MOL      0.916209
    165 C57         1.2860    2.0830   -0.6650 c         1 MOL      0.350423
    166 O25         2.1810    1.2320   -0.8570 o         1 MOL     -0.610545
    167 O26         1.5010    3.0690    0.1010 o         1 MOL     -0.610545
    168 H71        -2.4590    3.1140   -0.6400 hn        1 MOL      0.233364
    169 H72        -0.2010    4.7920   -1.2340 h1        1 MOL      0.142962
    170 H73         0.5050    3.0960   -2.8490 hc        1 MOL      0.016540
    171 H74        -1.0990    2.5130   -3.0460 hc        1 MOL      0.016540
    172 H75        -0.0500    0.9250   -1.9180 hc        1 MOL     -0.274165
    173 H76        -0.9070    1.6130   -0.6720 hc        1 MOL     -0.274165
    174 N15        -2.6150    5.3070   -3.0640 n         1 MOL     -0.178033
    175 C58        -3.2570    6.1140   -4.0870 c3        1 MOL     -0.328679
    176 H77        -4.3370    6.1000   -3.9350 h1        1 MOL      0.114383
    177 H78        -2.8930    7.1390   -4.0240 h1        1 MOL      0.114383
    178 H79        -3.0250    5.7060   -5.0710 h1        1 MOL      0.114383
    179 H80        -3.2530    4.6950   -2.5590 hn        1 MOL      0.188351
    180 Ca1         3.9680    2.1060    0.6470 Ca        1 MOL      1.749765
    181 O27         2.6440    2.4170    2.9630 oh        1 MOL     -0.852718
    182 H81         1.8410    2.8560    3.2560 ho        1 MOL      0.409159
    183 H82         2.7330    1.6670    3.5470 ho        1 MOL      0.409159
    184 O28         4.0570    4.6840    1.4170 oh        1 MOL     -0.852718
    185 H83         3.1190    4.8710    1.4220 ho        1 MOL      0.409159
    186 H84         4.4680    5.5120    1.1580 ho        1 MOL      0.409159
    187 O29         5.5700    1.2280    2.7330 oh        1 MOL     -0.852718
    188 H85         6.2960    0.6880    2.4400 ho        1 MOL      0.409159
    189 H86         5.0980    0.6920    3.3640 ho        1 MOL      0.409159
@<TRIPOS>BOND
     1    1    2 1   
     2    1    4 1   
     3    1    5 1   
     4    1    6 1   
     5    2    3 2   
     6    2    7 1   
     7    7    8 1   
     8    7   15 1   
     9    8    9 1   
    10    8   11 1   
    11    8   16 1   
    12    9   10 2   
    13    9   19 1   
    14   11   12 1   
    15   11   17 1   
    16   11   18 1   
    17   12   13 1   
    18   12   14 1   
    19   19   20 1   
    20   19   27 1   
    21   20   21 1   
    22   20   23 1   
    23   20   28 1   
    24   21   22 2   
    25   21   38 1   
    26   23   24 1   
    27   23   25 1   
    28   23   29 1   
    29   24   26 1   
    30   24   30 1   
    31   24   31 1   
    32   25   32 1   
    33   25   33 1   
    34   25   34 1   
    35   26   35 1   
    36   26   36 1   
    37   26   37 1   
    38   38   39 1   
    39   38   46 1   
    40   39   40 1   
    41   39   42 1   
    42   39   47 1   
    43   40   41 2   
    44   40   50 1   
    45   42   43 1   
    46   42   48 1   
    47   42   49 1   
    48   43   44 1   
    49   43   45 1   
    50   50   51 1   
    51   50   54 1   
    52   51   52 1   
    53   51   55 1   
    54   51   56 1   
    55   52   53 2   
    56   52   57 1   
    57   57   58 1   
    58   57   65 1   
    59   58   59 1   
    60   58   61 1   
    61   58   66 1   
    62   59   60 2   
    63   59   69 1   
    64   61   62 1   
    65   61   67 1   
    66   61   68 1   
    67   62   63 1   
    68   62   64 1   
    69   69   70 1   
    70   69   73 1   
    71   70   71 1   
    72   70   74 1   
    73   70   75 1   
    74   71   72 2   
    75   71   76 1   
    76   76   77 1   
    77   76   85 1   
    78   77   78 1   
    79   77   80 1   
    80   77   86 1   
    81   78   79 2   
    82   78   93 1   
    83   80   81 1   
    84   80   87 1   
    85   80   88 1   
    86   81   82 1   
    87   81   89 1   
    88   81   90 1   
    89   82   83 1   
    90   82   84 2   
    91   83   91 1   
    92   83   92 1   
    93   93   94 1   
    94   93  100 1   
    95   94   95 1   
    96   94   97 1   
    97   94  101 1   
    98   95   96 2   
    99   95  109 1   
   100   97   98 1   
   101   97   99 1   
   102   97  102 1   
   103   98  103 1   
   104   98  104 1   
   105   98  105 1   
   106   99  106 1   
   107   99  107 1   
   108   99  108 1   
   109  109  110 1   
   110  109  117 1   
   111  110  111 1   
   112  110  113 1   
   113  110  118 1   
   114  111  112 2   
   115  111  123 1   
   116  113  114 1   
   117  113  119 1   
   118  113  120 1   
   119  114  115 1   
   120  114  116 2   
   121  115  121 1   
   122  115  122 1   
   123  123  124 1   
   124  123  135 1   
   125  124  125 1   
   126  124  127 1   
   127  124  136 1   
   128  125  126 2   
   129  125  144 1   
   130  127  128 1   
   131  127  137 1   
   132  127  138 1   
   133  128  129 ar  
   134  128  130 ar  
   135  129  131 ar  
   136  129  139 1   
   137  130  132 ar  
   138  130  140 1   
   139  131  133 ar  
   140  131  141 1   
   141  132  133 ar  
   142  132  142 1   
   143  133  134 1   
   144  134  143 1   
   145  144  145 1   
   146  144  153 1   
   147  145  146 1   
   148  145  148 1   
   149  145  154 1   
   150  146  147 2   
   151  146  159 1   
   152  148  149 1   
   153  148  155 1   
   154  148  156 1   
   155  149  150 1   
   156  149  157 1   
   157  149  158 1   
   158  150  151 1   
   159  150  152 1   
   160  159  160 1   
   161  159  168 1   
   162  160  161 1   
   163  160  163 1   
   164  160  169 1   
   165  161  162 2   
   166  161  174 1   
   167  163  164 1   
   168  163  170 1   
   169  163  171 1   
   170  164  165 1   
   171  164  172 1   
   172  164  173 1   
   173  165  166 1   
   174  165  167 1   
   175  174  175 1   
   176  174  179 1   
   177  175  176 1   
   178  175  177 1   
   179  175  178 1   
   180  181  182 1   
   181  181  183 1   
   182  184  185 1   
   183  184  186 1   
   184  187  188 1   
   185  187  189 1   
@<TRIPOS>SUBSTRUCTURE
     1 MOL         1 TEMP              0 ****  ****    0 ROOT
