@<TRIPOS>MOLECULE
MOL
  175   173     1     0     0
SMALL
resp


@<TRIPOS>ATOM
      1 C1         -6.5950    7.7500    1.9930 c3        1 MOL     -0.553835
      2 C2         -7.3030    7.0160    0.8360 c         1 MOL      0.697788
      3 O1         -7.4310    7.5000   -0.2480 o         1 MOL     -0.587807
      4 H1         -5.5370    7.8640    1.7570 hc        1 MOL      0.139634
      5 H2         -7.0450    8.7340    2.1280 hc        1 MOL      0.139634
      6 H3         -6.7030    7.1720    2.9100 hc        1 MOL      0.139634
      7 N1         -7.9850    5.9120    1.1420 n         1 MOL     -0.524462
      8 C3         -8.6860    5.0270    0.1100 c3        1 MOL      0.343238
      9 C4         -7.7480    3.9080   -0.4230 c         1 MOL      0.485745
     10 O2         -7.9450    2.7330   -0.0810 o         1 MOL     -0.527170
     11 C5         -9.9980    4.5350    0.7290 c3        1 MOL     -0.327680
     12 C6        -10.9900    3.9790   -0.2960 c         1 MOL      0.675162
     13 O3        -10.6080    3.4830   -1.3970 o         1 MOL     -0.709896
     14 O4        -12.2050    3.8250    0.0530 o         1 MOL     -0.709896
     15 H4         -7.8680    5.4670    2.0390 hn        1 MOL      0.277219
     16 H5         -8.8040    5.5650   -0.8270 h1        1 MOL     -0.021823
     17 H6        -10.4890    5.3230    1.2910 hc        1 MOL      0.054675
     18 H7         -9.6350    3.7660    1.4040 hc        1 MOL      0.054675
     19 N2         -6.5730    4.3090   -0.7130 n         1 MOL     -0.602364
     20 C7         -5.4730    3.4240   -1.1010 c3        1 MOL      0.374161
     21 C8         -4.8860    2.7040    0.0890 c         1 MOL      0.557663
     22 O5         -4.4750    3.3080    1.0430 o         1 MOL     -0.566738
     23 C9         -4.4320    4.2690   -1.8150 c3        1 MOL     -0.272147
     24 H8         -6.4420    5.2920   -0.8710 hn        1 MOL      0.299785
     25 H9         -5.8680    2.7410   -1.8570 h1        1 MOL      0.048954
     26 H10        -4.9760    4.8040   -2.5940 hc        1 MOL      0.057015
     27 H11        -4.0150    4.9660   -1.0930 hc        1 MOL      0.057015
     28 H12        -3.6120    3.6710   -2.2070 hc        1 MOL      0.057015
     29 N3         -4.8800    1.3920   -0.0670 n         1 MOL     -0.395200
     30 C10        -5.4300    0.4990   -1.2040 c3        1 MOL     -0.254226
     31 C11        -5.7240   -0.9780   -0.6740 c         1 MOL      0.640149
     32 O6         -5.1070   -1.4980    0.2740 o         1 MOL     -0.534329
     33 C12        -4.4160    0.3430   -2.3500 c3        1 MOL     -0.029675
     34 C13        -3.0260    0.0150   -1.8440 c         1 MOL      0.817137
     35 O7         -2.4720   -0.8250   -2.4960 o         1 MOL     -0.785526
     36 O8         -2.4700    0.4630   -0.8220 o         1 MOL     -0.785526
     37 H13        -4.4160    0.9820    0.7260 hn        1 MOL      0.278575
     38 H14        -6.3860    0.8700   -1.5920 h1        1 MOL      0.101774
     39 H15        -4.2940    1.3030   -2.8540 hc        1 MOL      0.010706
     40 H16        -4.7400   -0.3140   -3.1560 hc        1 MOL      0.010706
     41 N4         -6.7160   -1.6230   -1.3270 n         1 MOL     -0.433451
     42 C14        -7.4430   -2.8260   -1.0220 c3        1 MOL      0.035140
     43 C15        -7.1110   -3.9720   -1.9440 c         1 MOL      0.485535
     44 O9         -8.0480   -4.3240   -2.7440 o         1 MOL     -0.564151
     45 H17        -7.1830   -1.0490   -2.0210 hn        1 MOL      0.320100
     46 H18        -8.4950   -2.5530   -1.1120 h1        1 MOL      0.069658
     47 H19        -7.2800   -3.0690    0.0300 h1        1 MOL      0.069658
     48 N5         -5.9360   -4.5710   -1.9670 n         1 MOL     -0.458692
     49 C16        -4.7100   -4.2860   -1.2370 c3        1 MOL      0.026680
     50 C17        -4.5470   -5.0430    0.0870 c         1 MOL      0.626100
     51 O10        -4.8720   -6.2150    0.2230 o         1 MOL     -0.574397
     52 C18        -3.5390   -4.6190   -2.1370 c3        1 MOL     -0.084715
     53 C19        -2.2270   -3.9880   -1.8160 c         1 MOL      0.670223
     54 N6         -1.2980   -4.2790   -2.6460 n         1 MOL     -0.768403
     55 O11        -1.9310   -3.3220   -0.8440 o         1 MOL     -0.625239
     56 H20        -5.8650   -5.3070   -2.6550 hn        1 MOL      0.304402
     57 H21        -4.6140   -3.2360   -0.9630 h1        1 MOL      0.084090
     58 H22        -3.6430   -4.1550   -3.1250 hc        1 MOL      0.044484
     59 H23        -3.5050   -5.6970   -2.2960 hc        1 MOL      0.044484
     60 H24        -1.4100   -4.9760   -3.3710 hn        1 MOL      0.354166
     61 H25        -0.3800   -4.1170   -2.2570 hn        1 MOL      0.354166
     62 N7         -4.1890   -4.3720    1.1640 n         1 MOL     -0.386281
     63 C20        -3.7240   -4.9790    2.4250 c3        1 MOL     -0.027252
     64 C21        -2.2250   -5.4010    2.4820 c         1 MOL      0.427627
     65 O12        -1.8820   -6.3440    3.2090 o         1 MOL     -0.564644
     66 H26        -4.0280   -3.3820    1.0470 hn        1 MOL      0.244187
     67 H27        -4.3870   -5.8420    2.5020 h1        1 MOL      0.080294
     68 H28        -3.9800   -4.4070    3.3170 h1        1 MOL      0.080294
     69 N8         -1.2840   -4.7840    1.7270 n         1 MOL     -0.053355
     70 C22         0.1630   -5.0430    1.8960 c3        1 MOL     -0.181747
     71 C23         1.0100   -3.7670    1.9420 c         1 MOL      0.353817
     72 O13         0.6900   -2.7550    1.3050 o         1 MOL     -0.386479
     73 C24         0.7300   -6.0210    0.8050 c3        1 MOL      0.313764
     74 C25         0.0870   -7.3710    1.0350 c3        1 MOL     -0.439555
     75 O14         0.3150   -5.6360   -0.5060 oh        1 MOL     -0.547443
     76 H29        -1.5940   -4.1210    1.0290 hn        1 MOL      0.117998
     77 H30         0.3670   -5.4400    2.8970 h1        1 MOL      0.112419
     78 H31         1.8120   -6.0670    0.7920 h1        1 MOL      0.041510
     79 H32         0.8510   -4.8690   -0.6990 ho        1 MOL      0.281226
     80 H33         0.5830   -8.0300    0.3110 hc        1 MOL      0.112954
     81 H34         0.4970   -7.7340    1.9760 hc        1 MOL      0.112954
     82 H35        -1.0010   -7.3890    1.0330 hc        1 MOL      0.112954
     83 N9          2.1300   -3.7910    2.6720 n         1 MOL     -0.369135
     84 C26         3.1480   -2.7140    2.6390 c3        1 MOL      0.089828
     85 C27         4.1510   -3.0720    1.4940 c         1 MOL      0.290933
     86 O15         5.0200   -3.9560    1.7310 o         1 MOL     -0.559729
     87 C28         3.7660   -2.5180    4.0080 c3        1 MOL      0.366613
     88 C29         4.8060   -1.4050    4.1130 c3        1 MOL     -0.060470
     89 C30         2.8700   -2.5850    5.2190 c3        1 MOL     -0.379705
     90 C31         4.3440    0.0530    3.7300 c3        1 MOL     -0.125305
     91 H36         2.4120   -4.6130    3.1910 hn        1 MOL      0.257161
     92 H37         2.6180   -1.8170    2.3180 h1        1 MOL      0.047499
     93 H38         4.4040   -3.3900    4.1310 hc        1 MOL     -0.080863
     94 H39         5.6740   -1.5980    3.4850 hc        1 MOL      0.009436
     95 H40         5.1520   -1.4100    5.1470 hc        1 MOL      0.009436
     96 H41         2.2520   -1.6850    5.1750 hc        1 MOL      0.079223
     97 H42         2.2280   -3.4620    5.1420 hc        1 MOL      0.079223
     98 H43         3.3750   -2.6090    6.1930 hc        1 MOL      0.079223
     99 H44         3.5230    0.4730    4.3010 hc        1 MOL      0.016991
    100 H45         5.1830    0.7460    3.8050 hc        1 MOL      0.016991
    101 H46         4.0200   -0.0170    2.6850 hc        1 MOL      0.016991
    102 N10         4.0360   -2.4160    0.3530 n         1 MOL     -0.045448
    103 C32         4.7060   -2.7920   -0.9140 c3        1 MOL     -0.152556
    104 C33         5.5220   -1.7020   -1.7510 c         1 MOL      0.543121
    105 O16         5.7170   -1.7850   -2.9290 o         1 MOL     -0.526956
    106 C34         3.5890   -3.4960   -1.7170 c3        1 MOL      0.143274
    107 C35         2.1760   -2.7730   -1.8810 c         1 MOL      0.351406
    108 O17         2.1140   -1.5430   -2.2370 o         1 MOL     -0.568109
    109 O18         1.0920   -3.3290   -1.4400 o         1 MOL     -0.568109
    110 H47         3.3830   -1.6560    0.2960 hn        1 MOL      0.190813
    111 H48         5.3120   -3.6920   -0.8060 h1        1 MOL      0.092752
    112 H49         3.3590   -4.4540   -1.2450 hc        1 MOL     -0.001777
    113 H50         4.0340   -3.8220   -2.6560 hc        1 MOL     -0.001777
    114 N11         5.9650   -0.7100   -1.0230 n         1 MOL     -0.536213
    115 C36         6.9090    0.3630   -1.4630 c3        1 MOL      0.457794
    116 C37         6.5380    1.6630   -0.6410 c         1 MOL      0.323529
    117 O19         6.1950    1.5200    0.5380 o         1 MOL     -0.465192
    118 C38         8.3190   -0.0980   -1.0590 c3        1 MOL     -0.275100
    119 C39         9.4590    0.6690   -1.6290 ca        1 MOL      0.152302
    120 C40        10.1050    1.6030   -0.8330 ca        1 MOL     -0.193849
    121 C41         9.9700    0.4300   -2.8900 ca        1 MOL     -0.193849
    122 C42        11.0690    2.4670   -1.3910 ca        1 MOL     -0.054312
    123 C43        10.9050    1.2900   -3.4590 ca        1 MOL     -0.054312
    124 C44        11.4860    2.2910   -2.6750 ca        1 MOL     -0.188313
    125 H51         5.6520   -0.6640   -0.0630 hn        1 MOL      0.250802
    126 H52         6.8850    0.4930   -2.5410 h1        1 MOL     -0.005826
    127 H53         8.4660   -1.1390   -1.3260 hc        1 MOL      0.098124
    128 H54         8.3470   -0.1100    0.0290 hc        1 MOL      0.098124
    129 H55         9.8180    1.8340    0.1810 ha        1 MOL      0.122188
    130 H56         9.4770   -0.2730   -3.5470 ha        1 MOL      0.122188
    131 H57        11.5900    3.1820   -0.7740 ha        1 MOL      0.096372
    132 H58        11.2980    1.1120   -4.4460 ha        1 MOL      0.096372
    133 H59        12.3000    2.8970   -3.0320 ha        1 MOL      0.115561
    134 N12         6.7280    2.9250   -1.1630 n         1 MOL     -0.355372
    135 C45         6.7480    4.2470   -0.3770 c3        1 MOL      0.135194
    136 C46         5.4300    4.7030    0.3060 c         1 MOL      0.440529
    137 O20         5.4080    5.7770    0.9360 o         1 MOL     -0.572897
    138 C47         7.0910    5.2350   -1.4720 c3        1 MOL     -0.190311
    139 C48         8.0140    4.4560   -2.4170 c3        1 MOL      0.111764
    140 C49         7.3720    3.1330   -2.4160 c3        1 MOL     -0.091036
    141 H60         7.4780    4.2660    0.4290 h1        1 MOL      0.078139
    142 H61         6.1750    5.4820   -2.0070 hc        1 MOL      0.074627
    143 H62         7.5620    6.1090   -1.0120 hc        1 MOL      0.074627
    144 H63         8.0410    4.8810   -3.4200 hc        1 MOL      0.002059
    145 H64         9.0310    4.5280   -2.0150 hc        1 MOL      0.002059
    146 H65         6.5470    3.1280   -3.1410 h1        1 MOL      0.072835
    147 H66         8.1270    2.4140   -2.7250 h1        1 MOL      0.072835
    148 N13         4.3720    3.9330    0.4250 n         1 MOL     -0.351236
    149 C50         3.0980    4.3920    0.9670 c3        1 MOL     -0.049727
    150 C51         3.0650    4.6930    2.4980 c         1 MOL      0.398158
    151 O21         2.0410    5.2020    2.9530 o         1 MOL     -0.516167
    152 C52         2.0420    3.2470    0.7120 c3        1 MOL     -0.154065
    153 C53         2.2420    1.9250    1.5190 c3        1 MOL      0.099650
    154 C54         1.3550    0.8150    0.9840 c         1 MOL      0.539555
    155 O22         0.1830    0.6470    1.3540 o         1 MOL     -0.668368
    156 O23         1.8980   -0.0440    0.2710 o         1 MOL     -0.668368
    157 H67         4.4100    2.9870    0.0870 hn        1 MOL      0.324551
    158 H68         2.8460    5.3500    0.5200 h1        1 MOL      0.141178
    159 H69         2.1900    2.9730   -0.3390 hc        1 MOL      0.041716
    160 H70         1.0560    3.6690    0.8740 hc        1 MOL      0.041716
    161 H71         2.1860    2.1950    2.5730 hc        1 MOL     -0.011210
    162 H72         3.3030    1.7110    1.3550 hc        1 MOL     -0.011210
    163 N14         4.1330    4.5470    3.2470 n         1 MOL     -0.078718
    164 C55         4.2710    4.9480    4.6000 c3        1 MOL     -0.068513
    165 H73         5.1110    5.6370    4.6910 h1        1 MOL      0.047893
    166 H74         3.3580    5.4440    4.9280 h1        1 MOL      0.047893
    167 H75         4.4530    4.0710    5.2220 h1        1 MOL      0.047893
    168 H76         4.8620    3.9800    2.8390 hn        1 MOL      0.169004
    169 Ca1        -0.2890   -1.1660   -0.7840 Ca        1 MOL      1.719927
    170 O24        -2.1250   -1.5770    1.3140 oh        1 MOL     -0.833654
    171 H77        -2.0370   -0.9990    2.0690 ho        1 MOL      0.412125
    172 H78        -2.9330   -1.2810    0.8870 ho        1 MOL      0.412125
    173 O25         0.6850    1.0940   -2.4110 oh        1 MOL     -0.833654
    174 H79         1.4900    1.5540   -2.6600 ho        1 MOL      0.412125
    175 H80         0.0900    1.7900   -2.1280 ho        1 MOL      0.412125
@<TRIPOS>BOND
     1    1    2 1   
     2    1    4 1   
     3    1    5 1   
     4    1    6 1   
     5    2    3 2   
     6    2    7 1   
     7    7    8 1   
     8    7   15 1   
     9    8    9 1   
    10    8   11 1   
    11    8   16 1   
    12    9   10 2   
    13    9   19 1   
    14   11   12 1   
    15   11   17 1   
    16   11   18 1   
    17   12   13 1   
    18   12   14 1   
    19   19   20 1   
    20   19   24 1   
    21   20   21 1   
    22   20   23 1   
    23   20   25 1   
    24   21   22 2   
    25   21   29 1   
    26   23   26 1   
    27   23   27 1   
    28   23   28 1   
    29   29   30 1   
    30   29   37 1   
    31   30   31 1   
    32   30   33 1   
    33   30   38 1   
    34   31   32 2   
    35   31   41 1   
    36   33   34 1   
    37   33   39 1   
    38   33   40 1   
    39   34   35 1   
    40   34   36 1   
    41   41   42 1   
    42   41   45 1   
    43   42   43 1   
    44   42   46 1   
    45   42   47 1   
    46   43   44 2   
    47   43   48 1   
    48   48   49 1   
    49   48   56 1   
    50   49   50 1   
    51   49   52 1   
    52   49   57 1   
    53   50   51 2   
    54   50   62 1   
    55   52   53 1   
    56   52   58 1   
    57   52   59 1   
    58   53   54 1   
    59   53   55 2   
    60   54   60 1   
    61   54   61 1   
    62   62   63 1   
    63   62   66 1   
    64   63   64 1   
    65   63   67 1   
    66   63   68 1   
    67   64   65 2   
    68   64   69 1   
    69   69   70 1   
    70   69   76 1   
    71   70   71 1   
    72   70   73 1   
    73   70   77 1   
    74   71   72 2   
    75   71   83 1   
    76   73   74 1   
    77   73   75 1   
    78   73   78 1   
    79   74   80 1   
    80   74   81 1   
    81   74   82 1   
    82   75   79 1   
    83   83   84 1   
    84   83   91 1   
    85   84   85 1   
    86   84   87 1   
    87   84   92 1   
    88   85   86 2   
    89   85  102 1   
    90   87   88 1   
    91   87   89 1   
    92   87   93 1   
    93   88   90 1   
    94   88   94 1   
    95   88   95 1   
    96   89   96 1   
    97   89   97 1   
    98   89   98 1   
    99   90   99 1   
   100   90  100 1   
   101   90  101 1   
   102  102  103 1   
   103  102  110 1   
   104  103  104 1   
   105  103  106 1   
   106  103  111 1   
   107  104  105 2   
   108  104  114 1   
   109  106  107 1   
   110  106  112 1   
   111  106  113 1   
   112  107  108 1   
   113  107  109 1   
   114  114  115 1   
   115  114  125 1   
   116  115  116 1   
   117  115  118 1   
   118  115  126 1   
   119  116  117 2   
   120  116  134 1   
   121  118  119 1   
   122  118  127 1   
   123  118  128 1   
   124  119  120 ar  
   125  119  121 ar  
   126  120  122 ar  
   127  120  129 1   
   128  121  123 ar  
   129  121  130 1   
   130  122  124 ar  
   131  122  131 1   
   132  123  124 ar  
   133  123  132 1   
   134  124  133 1   
   135  134  135 1   
   136  134  140 1   
   137  135  136 1   
   138  135  138 1   
   139  135  141 1   
   140  136  137 2   
   141  136  148 1   
   142  138  139 1   
   143  138  142 1   
   144  138  143 1   
   145  139  140 1   
   146  139  144 1   
   147  139  145 1   
   148  140  146 1   
   149  140  147 1   
   150  148  149 1   
   151  148  157 1   
   152  149  150 1   
   153  149  152 1   
   154  149  158 1   
   155  150  151 2   
   156  150  163 1   
   157  152  153 1   
   158  152  159 1   
   159  152  160 1   
   160  153  154 1   
   161  153  161 1   
   162  153  162 1   
   163  154  155 1   
   164  154  156 1   
   165  163  164 1   
   166  163  168 1   
   167  164  165 1   
   168  164  166 1   
   169  164  167 1   
   170  170  171 1   
   171  170  172 1   
   172  173  174 1   
   173  173  175 1   
@<TRIPOS>SUBSTRUCTURE
     1 MOL         1 TEMP              0 ****  ****    0 ROOT
