@<TRIPOS>MOLECULE
MOL
  198   191     1     0     0
SMALL
resp


@<TRIPOS>ATOM
      1 C1         -3.9850   -3.8630    2.4440 c3        1 MOL     -0.177113
      2 C2         -3.0730   -3.7630    1.1790 c         1 MOL      0.454652
      3 O1         -2.6070   -2.7290    0.7840 o         1 MOL     -0.472131
      4 H1         -3.7840   -3.0200    3.1040 hc        1 MOL      0.046202
      5 H2         -5.0320   -3.8440    2.1410 hc        1 MOL      0.046202
      6 H3         -3.7760   -4.7950    2.9710 hc        1 MOL      0.046202
      7 N1         -2.7250   -4.8990    0.6180 n         1 MOL     -0.667633
      8 C3         -1.7750   -5.1740   -0.4940 c3        1 MOL     -0.000105
      9 C4         -0.3210   -4.7350   -0.2380 c         1 MOL      0.786471
     10 O2          0.4130   -4.4430   -1.1840 o         1 MOL     -0.556883
     11 C5         -2.3980   -4.5110   -1.7630 c3        1 MOL     -0.466456
     12 C6         -3.8690   -4.7950   -1.9650 c         1 MOL      0.872374
     13 O3         -4.1570   -5.9850   -2.1960 o         1 MOL     -0.700081
     14 O4         -4.7330   -3.8560   -1.7500 o         1 MOL     -0.700081
     15 H4         -3.0340   -5.7020    1.1450 hn        1 MOL      0.353212
     16 H5         -1.7900   -6.2590   -0.6250 h1        1 MOL      0.125539
     17 H6         -1.8640   -4.9650   -2.5960 hc        1 MOL      0.133419
     18 H7         -2.3050   -3.4200   -1.7890 hc        1 MOL      0.133419
     19 N2          0.0470   -4.5860    1.0500 n         1 MOL     -0.711241
     20 C7          1.4070   -4.1630    1.4010 c3        1 MOL     -0.102028
     21 C8          2.4890   -5.3370    1.4820 c         1 MOL      0.610227
     22 O5          2.0990   -6.5100    1.5970 o         1 MOL     -0.618316
     23 C9          1.3370   -3.3410    2.7550 c3        1 MOL      0.514346
     24 C10         0.8540   -4.3490    3.8210 c3        1 MOL     -0.032113
     25 C11         0.3860   -2.1690    2.6170 c3        1 MOL     -0.261529
     26 C12         0.5030   -3.7210    5.2010 c3        1 MOL     -0.188993
     27 H8         -0.6010   -4.6700    1.8150 hn        1 MOL      0.393125
     28 H9          1.7840   -3.4540    0.6630 h1        1 MOL      0.072951
     29 H10         2.3460   -3.0490    3.0630 hc        1 MOL     -0.061965
     30 H11         1.6640   -5.0390    4.0660 hc        1 MOL      0.018584
     31 H12        -0.0490   -4.9050    3.5960 hc        1 MOL      0.018584
     32 H13         0.4820   -1.4190    3.3960 hc        1 MOL      0.071593
     33 H14         0.3830   -1.6300    1.6710 hc        1 MOL      0.071593
     34 H15        -0.6200   -2.5420    2.8020 hc        1 MOL      0.071593
     35 H16        -0.3990   -3.1120    5.1360 hc        1 MOL      0.026021
     36 H17         0.2780   -4.5500    5.8730 hc        1 MOL      0.026021
     37 H18         1.3370   -3.0620    5.4340 hc        1 MOL      0.026021
     38 N3          3.7810   -5.0740    1.3540 n         1 MOL     -0.534191
     39 C13         4.4210   -3.6630    1.3550 c3        1 MOL     -0.090027
     40 C14         5.1040   -3.2720    0.1080 c         1 MOL      0.773120
     41 O6          5.5920   -2.1530    0.0690 o         1 MOL     -0.541870
     42 C15         5.2000   -3.4360    2.5940 c3        1 MOL     -0.094565
     43 C16         6.5870   -4.0140    2.6230 c         1 MOL      0.666227
     44 O7          6.6420   -5.2090    2.1370 o         1 MOL     -0.678550
     45 O8          7.5730   -3.3090    2.9750 o         1 MOL     -0.678550
     46 H19         4.3550   -5.8780    1.1600 hn        1 MOL      0.315858
     47 H20         3.5740   -2.9820    1.4210 h1        1 MOL      0.004917
     48 H21         4.6450   -3.8520    3.4360 hc        1 MOL      0.028350
     49 H22         5.3440   -2.3720    2.7560 hc        1 MOL      0.028350
     50 N4          5.1610   -4.1680   -0.9250 n         1 MOL     -0.467255
     51 C17         5.9100   -3.9670   -2.1310 c3        1 MOL     -0.067679
     52 C18         7.2260   -3.2140   -1.9680 c         1 MOL      0.550520
     53 O9          8.1950   -3.8240   -1.5750 o         1 MOL     -0.552184
     54 H23         4.8020   -5.0950   -0.7430 hn        1 MOL      0.314709
     55 H24         5.3290   -3.4930   -2.9220 h1        1 MOL      0.054509
     56 H25         6.2630   -4.9450   -2.4530 h1        1 MOL      0.054509
     57 N5          7.2880   -1.9380   -2.2880 n         1 MOL     -0.596403
     58 C19         8.4910   -1.0970   -2.2870 c3        1 MOL      0.279582
     59 C20         8.9230   -0.5870   -0.8230 c         1 MOL      0.372939
     60 O10        10.0850   -0.2850   -0.5900 o         1 MOL     -0.563025
     61 C21         8.3580   -0.0260   -3.3950 c3        1 MOL     -0.349341
     62 C22         6.9760    0.7110   -3.3590 c         1 MOL      0.677010
     63 O11         6.2620    0.5590   -2.3720 o         1 MOL     -0.694951
     64 O12         6.6840    1.5130   -4.2400 o         1 MOL     -0.694951
     65 H26         6.3690   -1.5550   -2.4750 hn        1 MOL      0.357192
     66 H27         9.3960   -1.6580   -2.5350 h1        1 MOL      0.023738
     67 H28         8.4860   -0.4540   -4.3870 hc        1 MOL      0.063274
     68 H29         9.1980    0.6730   -3.3370 hc        1 MOL      0.063274
     69 N6          7.9620   -0.7490    0.1010 n         1 MOL     -0.068781
     70 C23         8.0240   -0.2690    1.4890 c3        1 MOL      0.009869
     71 C24         7.5300    1.1850    1.5850 c         1 MOL      0.416254
     72 O13         7.8100    1.8970    2.5600 o         1 MOL     -0.562919
     73 H30         7.1490   -1.2960   -0.1770 hn        1 MOL      0.189855
     74 H31         9.0010   -0.3310    1.9770 h1        1 MOL      0.056890
     75 H32         7.3640   -0.9080    2.0800 h1        1 MOL      0.056890
     76 N7          6.8450    1.6600    0.5230 n         1 MOL     -0.230972
     77 C25         6.2060    2.9500    0.4210 c3        1 MOL      0.480166
     78 C26         5.1150    3.1820    1.5180 c         1 MOL      0.203016
     79 O14         5.0190    4.2530    2.1030 o         1 MOL     -0.468666
     80 C27         7.2590    4.0290    0.1640 c3        1 MOL     -0.279526
     81 C28         7.8630    4.0140   -1.2010 c3        1 MOL      0.011644
     82 C29         8.8350    5.1120   -1.4120 c         1 MOL      0.672181
     83 N8          9.5560    5.1820   -2.4720 n         1 MOL     -0.798680
     84 O15         9.1420    5.9360   -0.5610 o         1 MOL     -0.593400
     85 H33         6.7530    1.0720   -0.2920 hn        1 MOL      0.110680
     86 H34         5.6110    2.7720   -0.4820 h1        1 MOL     -0.004591
     87 H35         8.1320    3.9340    0.8110 hc        1 MOL      0.057992
     88 H36         6.7430    4.9790    0.3120 hc        1 MOL      0.057992
     89 H37         7.0990    4.1180   -1.9620 hc        1 MOL      0.019561
     90 H38         8.3820    3.0630   -1.3630 hc        1 MOL      0.019561
     91 H39         9.4920    4.3960   -3.1110 hn        1 MOL      0.344585
     92 H40        10.0950    6.0180   -2.6510 hn        1 MOL      0.344585
     93 N9          4.2290    2.2030    1.6330 n         1 MOL     -0.274885
     94 C30         3.1000    2.2950    2.5620 c3        1 MOL      0.033297
     95 C31         1.7710    1.9540    1.9880 c         1 MOL      0.604268
     96 O16         0.7200    2.1610    2.6520 o         1 MOL     -0.578011
     97 C32         3.4430    1.4630    3.8560 c3        1 MOL      0.301927
     98 C33         3.5110   -0.0210    3.6800 c3        1 MOL     -0.364441
     99 C34         4.6050    2.0370    4.6840 c3        1 MOL     -0.364441
    100 H41         4.4190    1.3520    1.1430 hn        1 MOL      0.191441
    101 H42         3.0390    3.3220    2.9400 h1        1 MOL      0.091048
    102 H43         2.5350    1.6590    4.4370 hc        1 MOL     -0.067624
    103 H44         2.9590   -0.4750    4.5020 hc        1 MOL      0.088764
    104 H45         3.0930   -0.3050    2.7140 hc        1 MOL      0.088764
    105 H46         4.5390   -0.3820    3.7600 hc        1 MOL      0.088764
    106 H47         5.4640    1.9950    4.0100 hc        1 MOL      0.088764
    107 H48         4.3760    3.0390    5.0400 hc        1 MOL      0.088764
    108 H49         4.8530    1.3480    5.4910 hc        1 MOL      0.088764
    109 N10         1.7840    1.6630    0.7210 n         1 MOL     -0.659504
    110 C35         0.6160    1.3950   -0.0520 c3        1 MOL      0.129386
    111 C36        -0.1090    2.6760   -0.5300 c         1 MOL      0.590614
    112 O17         0.6260    3.6410   -0.7940 o         1 MOL     -0.431333
    113 C37         1.0360    0.5920   -1.3270 c3        1 MOL     -0.275102
    114 C38         1.2660   -0.8820   -0.9960 c         1 MOL      0.706911
    115 N11         0.4820   -1.6330   -1.6690 n         1 MOL     -0.691719
    116 O18         2.1170   -1.3750   -0.3020 o         1 MOL     -0.549110
    117 H50         2.6560    1.5790    0.2130 hn        1 MOL      0.332285
    118 H51        -0.0970    0.8510    0.5790 h1        1 MOL      0.035752
    119 H52         1.9430    1.0560   -1.7060 hc        1 MOL      0.075349
    120 H53         0.2580    0.7760   -2.0600 hc        1 MOL      0.075349
    121 H54        -0.2000   -1.1810   -2.2570 hn        1 MOL      0.329358
    122 H55         0.4890   -2.6320   -1.4950 hn        1 MOL      0.329358
    123 N12        -1.4240    2.7080   -0.5330 n         1 MOL     -0.535332
    124 C39        -2.3610    3.8810   -0.6530 c3        1 MOL      0.238625
    125 C40        -3.6110    3.6820    0.2070 c         1 MOL      0.585167
    126 O19        -3.9190    2.6360    0.7110 o         1 MOL     -0.538635
    127 C41        -2.5770    4.1450   -2.1410 c3        1 MOL     -0.047071
    128 C42        -1.3240    4.5150   -2.9300 ca        1 MOL      0.056539
    129 C43        -0.7630    3.4880   -3.7240 ca        1 MOL     -0.268922
    130 C44        -0.8250    5.8430   -2.8470 ca        1 MOL     -0.268922
    131 C45         0.4220    3.9310   -4.4160 ca        1 MOL     -0.165049
    132 C46         0.3620    6.1850   -3.5120 ca        1 MOL     -0.165049
    133 C47         0.9860    5.2200   -4.3100 ca        1 MOL      0.240893
    134 O20         2.1670    5.4750   -4.9130 oh        1 MOL     -0.457512
    135 H56        -1.8590    1.8130   -0.3780 hn        1 MOL      0.262991
    136 H57        -1.9150    4.7360   -0.1420 h1        1 MOL      0.027018
    137 H58        -3.2470    4.9930   -2.2690 hc        1 MOL      0.028445
    138 H59        -3.0830    3.3270   -2.6380 hc        1 MOL      0.028445
    139 H60        -1.1560    2.4820   -3.7200 ha        1 MOL      0.169732
    140 H61        -1.3490    6.6070   -2.2840 ha        1 MOL      0.169732
    141 H62         0.9280    3.1360   -4.9530 ha        1 MOL      0.132571
    142 H63         0.7870    7.1740   -3.3980 ha        1 MOL      0.132571
    143 H64         2.4260    4.9300   -5.6510 ho        1 MOL      0.351685
    144 N13        -4.4440    4.7700    0.2390 n         1 MOL     -0.728228
    145 C48        -5.8220    4.7260    0.8350 c3        1 MOL      0.463969
    146 C49        -6.6820    4.1820   -0.2450 c         1 MOL      0.146495
    147 O21        -6.9880    4.8570   -1.2390 o         1 MOL     -0.514207
    148 C50        -6.4130    6.0890    1.2550 c3        1 MOL     -0.025846
    149 C51        -5.5710    6.8470    2.2680 c3        1 MOL     -0.084432
    150 C52        -6.2780    8.1320    2.7170 c         1 MOL      0.662287
    151 O22        -6.9770    8.0420    3.7260 o         1 MOL     -0.658492
    152 O23        -6.0500    9.2260    2.1050 o         1 MOL     -0.658492
    153 H65        -4.1150    5.6000   -0.2130 hn        1 MOL      0.358228
    154 H66        -5.8260    4.1530    1.7530 h1        1 MOL      0.005856
    155 H67        -7.3680    5.9030    1.7380 hc        1 MOL      0.024316
    156 H68        -6.4490    6.7690    0.4020 hc        1 MOL      0.024316
    157 H69        -4.5840    7.0560    1.8570 hc        1 MOL     -0.019753
    158 H70        -5.5330    6.2090    3.1480 hc        1 MOL     -0.019753
    159 N14        -7.0930    2.9680   -0.1460 n         1 MOL     -0.048841
    160 C53        -7.0850    1.9360    0.9450 c3        1 MOL     -0.431558
    161 C54        -7.6870    2.3160    2.3410 c         1 MOL      0.479290
    162 O24        -8.3110    3.3880    2.5960 o         1 MOL     -0.456764
    163 C55        -7.7610    0.5590    0.3830 c3        1 MOL      0.336266
    164 C56        -9.2580    0.7490   -0.0560 c3        1 MOL     -0.422145
    165 C57        -9.2930    0.8420   -1.5880 c         1 MOL      0.786691
    166 O25        -9.6830   -0.1160   -2.3120 o         1 MOL     -0.695868
    167 O26        -9.0000    1.9190   -2.1270 o         1 MOL     -0.695868
    168 H71        -7.4230    2.5900   -1.0210 hn        1 MOL      0.297357
    169 H72        -6.0400    1.6660    1.0680 h1        1 MOL      0.127107
    170 H73        -7.8250   -0.1660    1.2010 hc        1 MOL     -0.069061
    171 H74        -7.1300    0.2150   -0.4350 hc        1 MOL     -0.069061
    172 H75        -9.7290    1.6200    0.3970 hc        1 MOL      0.077360
    173 H76        -9.8800   -0.0840    0.2780 hc        1 MOL      0.077360
    174 N15        -7.5180    1.3680    3.2900 n         1 MOL     -0.143535
    175 C58        -8.0960    1.2190    4.5900 c3        1 MOL     -0.243264
    176 H77        -7.8700    2.0990    5.1910 h1        1 MOL      0.094818
    177 H78        -9.1770    1.1100    4.4980 h1        1 MOL      0.094818
    178 H79        -7.6820    0.3340    5.0730 h1        1 MOL      0.094818
    179 H80        -6.8620    0.6180    3.1110 hn        1 MOL      0.205872
    180 Ca1        -7.1970   -4.5060   -1.4180 Ca        1 MOL      1.725722
    181 O27        -8.2830   -2.7470    0.1460 oh        1 MOL     -0.836197
    182 H81        -7.6650   -2.0240    0.2960 ho        1 MOL      0.380693
    183 H82        -8.9730   -2.6170    0.7950 ho        1 MOL      0.380693
    184 O28        -6.2090   -7.0170   -1.0430 oh        1 MOL     -0.836197
    185 H83        -6.1980   -7.9710   -1.1320 ho        1 MOL      0.380693
    186 H84        -5.3440   -6.7440   -1.3480 ho        1 MOL      0.380693
    187 O29        -8.8960   -6.0360    0.0980 oh        1 MOL     -0.836197
    188 H85        -9.7450   -5.8790   -0.3080 ho        1 MOL      0.380693
    189 H86        -8.9580   -6.9210    0.4610 ho        1 MOL      0.380693
    190 O30        -6.7700   -4.2460   -4.3350 oh        1 MOL     -0.836197
    191 H87        -7.2980   -4.8750   -4.8330 ho        1 MOL      0.380693
    192 H88        -6.8390   -3.4340   -4.8390 ho        1 MOL      0.380693
    193 O31        -8.5050   -6.1110   -3.1350 oh        1 MOL     -0.836197
    194 H89        -9.4310   -6.3380   -3.0720 ho        1 MOL      0.380693
    195 H90        -8.1340   -6.7890   -3.6880 ho        1 MOL      0.380693
    196 O32        -7.7900   -2.0080   -2.6090 oh        1 MOL     -0.836197
    197 H91        -6.9130   -1.7050   -2.8620 ho        1 MOL      0.380693
    198 H92        -8.3040   -1.2000   -2.5250 ho        1 MOL      0.380693
@<TRIPOS>BOND
     1    1    2 1   
     2    1    4 1   
     3    1    5 1   
     4    1    6 1   
     5    2    3 2   
     6    2    7 1   
     7    7    8 1   
     8    7   15 1   
     9    8    9 1   
    10    8   11 1   
    11    8   16 1   
    12    9   10 2   
    13    9   19 1   
    14   11   12 1   
    15   11   17 1   
    16   11   18 1   
    17   12   13 1   
    18   12   14 1   
    19   19   20 1   
    20   19   27 1   
    21   20   21 1   
    22   20   23 1   
    23   20   28 1   
    24   21   22 2   
    25   21   38 1   
    26   23   24 1   
    27   23   25 1   
    28   23   29 1   
    29   24   26 1   
    30   24   30 1   
    31   24   31 1   
    32   25   32 1   
    33   25   33 1   
    34   25   34 1   
    35   26   35 1   
    36   26   36 1   
    37   26   37 1   
    38   38   39 1   
    39   38   46 1   
    40   39   40 1   
    41   39   42 1   
    42   39   47 1   
    43   40   41 2   
    44   40   50 1   
    45   42   43 1   
    46   42   48 1   
    47   42   49 1   
    48   43   44 1   
    49   43   45 1   
    50   50   51 1   
    51   50   54 1   
    52   51   52 1   
    53   51   55 1   
    54   51   56 1   
    55   52   53 2   
    56   52   57 1   
    57   57   58 1   
    58   57   65 1   
    59   58   59 1   
    60   58   61 1   
    61   58   66 1   
    62   59   60 2   
    63   59   69 1   
    64   61   62 1   
    65   61   67 1   
    66   61   68 1   
    67   62   63 1   
    68   62   64 1   
    69   69   70 1   
    70   69   73 1   
    71   70   71 1   
    72   70   74 1   
    73   70   75 1   
    74   71   72 2   
    75   71   76 1   
    76   76   77 1   
    77   76   85 1   
    78   77   78 1   
    79   77   80 1   
    80   77   86 1   
    81   78   79 2   
    82   78   93 1   
    83   80   81 1   
    84   80   87 1   
    85   80   88 1   
    86   81   82 1   
    87   81   89 1   
    88   81   90 1   
    89   82   83 1   
    90   82   84 2   
    91   83   91 1   
    92   83   92 1   
    93   93   94 1   
    94   93  100 1   
    95   94   95 1   
    96   94   97 1   
    97   94  101 1   
    98   95   96 2   
    99   95  109 1   
   100   97   98 1   
   101   97   99 1   
   102   97  102 1   
   103   98  103 1   
   104   98  104 1   
   105   98  105 1   
   106   99  106 1   
   107   99  107 1   
   108   99  108 1   
   109  109  110 1   
   110  109  117 1   
   111  110  111 1   
   112  110  113 1   
   113  110  118 1   
   114  111  112 2   
   115  111  123 1   
   116  113  114 1   
   117  113  119 1   
   118  113  120 1   
   119  114  115 1   
   120  114  116 2   
   121  115  121 1   
   122  115  122 1   
   123  123  124 1   
   124  123  135 1   
   125  124  125 1   
   126  124  127 1   
   127  124  136 1   
   128  125  126 2   
   129  125  144 1   
   130  127  128 1   
   131  127  137 1   
   132  127  138 1   
   133  128  129 ar  
   134  128  130 ar  
   135  129  131 ar  
   136  129  139 1   
   137  130  132 ar  
   138  130  140 1   
   139  131  133 ar  
   140  131  141 1   
   141  132  133 ar  
   142  132  142 1   
   143  133  134 1   
   144  134  143 1   
   145  144  145 1   
   146  144  153 1   
   147  145  146 1   
   148  145  148 1   
   149  145  154 1   
   150  146  147 2   
   151  146  159 1   
   152  148  149 1   
   153  148  155 1   
   154  148  156 1   
   155  149  150 1   
   156  149  157 1   
   157  149  158 1   
   158  150  151 1   
   159  150  152 1   
   160  159  160 1   
   161  159  168 1   
   162  160  161 1   
   163  160  163 1   
   164  160  169 1   
   165  161  162 2   
   166  161  174 1   
   167  163  164 1   
   168  163  170 1   
   169  163  171 1   
   170  164  165 1   
   171  164  172 1   
   172  164  173 1   
   173  165  166 1   
   174  165  167 1   
   175  174  175 1   
   176  174  179 1   
   177  175  176 1   
   178  175  177 1   
   179  175  178 1   
   180  181  182 1   
   181  181  183 1   
   182  184  185 1   
   183  184  186 1   
   184  187  188 1   
   185  187  189 1   
   186  190  191 1   
   187  190  192 1   
   188  193  194 1   
   189  193  195 1   
   190  196  197 1   
   191  196  198 1   
@<TRIPOS>SUBSTRUCTURE
     1 MOL         1 TEMP              0 ****  ****    0 ROOT
