@<TRIPOS>MOLECULE
MOL
  192   187     1     0     0
SMALL
resp


@<TRIPOS>ATOM
      1 C1         -4.9030   -3.8680    5.0330 c3        1 MOL     -0.030689
      2 C2         -4.4610   -3.0340    3.8420 c         1 MOL      0.622567
      3 O1         -4.1660   -3.6470    2.7700 o         1 MOL     -0.602754
      4 H1         -4.2690   -4.7510    5.1130 hc        1 MOL      0.004207
      5 H2         -4.8170   -3.2760    5.9440 hc        1 MOL      0.004207
      6 H3         -5.9400   -4.1770    4.8970 hc        1 MOL      0.004207
      7 N1         -4.5830   -1.7190    3.8320 n         1 MOL     -0.364845
      8 C3         -4.3240   -0.8620    2.6300 c3        1 MOL      0.201090
      9 C4         -2.9250   -0.9530    2.0480 c         1 MOL     -0.006956
     10 O2         -2.7030   -0.3580    0.9660 o         1 MOL     -0.074119
     11 C5         -4.5590    0.6280    3.1180 c3        1 MOL     -0.175808
     12 C6         -5.8910    0.8450    3.8940 c         1 MOL      0.713339
     13 O3         -6.1130    0.3340    5.0150 o         1 MOL     -0.698800
     14 O4         -6.7600    1.5140    3.2700 o         1 MOL     -0.698800
     15 H4         -4.8780   -1.2800    4.6860 hn        1 MOL      0.240868
     16 H5         -5.0120   -1.1340    1.8330 h1        1 MOL      0.072484
     17 H6         -4.6470    1.3420    2.2960 hc        1 MOL     -0.005786
     18 H7         -3.7320    0.9740    3.7260 hc        1 MOL     -0.005786
     19 N2         -2.0360   -1.6670    2.7340 n         1 MOL     -0.228020
     20 C7         -0.6110   -1.6650    2.4550 c3        1 MOL     -0.000867
     21 C8         -0.2280   -2.6540    1.3110 c         1 MOL      0.348179
     22 O5         -0.6700   -3.8000    1.3020 o         1 MOL     -0.498953
     23 C9          0.1660   -1.8480    3.7870 c3        1 MOL      0.025339
     24 C10        -0.3110   -0.8650    4.8310 c3        1 MOL      0.179405
     25 C11         0.4000   -1.0660    6.2060 c3        1 MOL     -0.104581
     26 C12         1.9060   -0.8950    6.0770 c3        1 MOL      0.004995
     27 N3          2.6500   -1.3490    7.2370 n4        1 MOL     -0.350620
     28 H8         -2.4110   -2.0280    3.5970 hn        1 MOL      0.228106
     29 H9         -0.3080   -0.6450    2.2400 h1        1 MOL      0.090781
     30 H10         1.2420   -1.7360    3.6150 hc        1 MOL     -0.011810
     31 H11        -0.0400   -2.8410    4.1850 hc        1 MOL     -0.011810
     32 H12        -1.3770   -1.0630    4.9350 hc        1 MOL     -0.027128
     33 H13        -0.0620    0.1500    4.5290 hc        1 MOL     -0.027128
     34 H14         0.2140   -2.0740    6.5910 hc        1 MOL      0.029091
     35 H15        -0.0260   -0.3450    6.9080 hc        1 MOL      0.029091
     36 H16         2.0820    0.1730    5.9050 hx        1 MOL      0.120516
     37 H17         2.2320   -1.4510    5.2070 hx        1 MOL      0.120516
     38 H18         3.6480   -1.2210    7.2140 hn        1 MOL      0.317579
     39 H19         2.2560   -0.9030    8.0540 hn        1 MOL      0.317579
     40 H20         2.4280   -2.3270    7.3580 hn        1 MOL      0.317579
     41 N4          0.6310   -2.3540    0.4510 n         1 MOL     -0.214731
     42 C13         1.2690   -1.0820    0.0430 c3        1 MOL     -0.127096
     43 C14         1.7730   -0.0980    1.1080 c         1 MOL      0.343133
     44 O6          1.1580    0.9670    1.3420 o         1 MOL     -0.398657
     45 C15         0.3570   -0.4130   -1.0540 c3        1 MOL     -0.104989
     46 C16         0.0350   -1.3800   -2.2720 c         1 MOL      0.471666
     47 O7          0.9220   -2.2690   -2.5870 o         1 MOL     -0.650726
     48 O8         -1.1250   -1.3710   -2.8280 o         1 MOL     -0.650726
     49 H21         0.9260   -3.1450   -0.1120 hn        1 MOL      0.224160
     50 H22         2.1760   -1.3170   -0.5170 h1        1 MOL      0.076437
     51 H23         0.7860    0.5190   -1.4010 hc        1 MOL      0.148814
     52 H24        -0.6160   -0.1170   -0.6430 hc        1 MOL      0.148814
     53 N5          2.8420   -0.3390    1.8080 n         1 MOL     -0.157580
     54 C17         3.6850   -1.5060    1.7990 c3        1 MOL     -0.306711
     55 C18         5.0870   -1.1460    2.4430 c         1 MOL      0.620172
     56 O9          5.1880   -0.3450    3.3920 o         1 MOL     -0.576088
     57 H25         2.9650    0.3810    2.5100 hn        1 MOL      0.206025
     58 H26         3.7860   -1.9430    0.8090 h1        1 MOL      0.127185
     59 H27         3.2850   -2.2450    2.5010 h1        1 MOL      0.127185
     60 N6          6.1300   -1.9050    2.0900 n         1 MOL     -0.384028
     61 C19         6.2620   -2.9750    1.1140 c3        1 MOL     -0.199917
     62 C20         6.9250   -2.4690   -0.2010 c         1 MOL      0.587605
     63 O10         7.7300   -1.5090   -0.1930 o         1 MOL     -0.445499
     64 C21         7.1810   -4.0390    1.7640 c3        1 MOL     -0.142176
     65 C22         8.5210   -3.5720    2.4500 c         1 MOL      0.738052
     66 O11         9.5290   -3.3570    1.7110 o         1 MOL     -0.692197
     67 O12         8.6100   -3.6430    3.6920 o         1 MOL     -0.692197
     68 H28         6.9430   -1.5530    2.5800 hn        1 MOL      0.299901
     69 H29         5.3350   -3.5040    0.9070 h1        1 MOL      0.113255
     70 H30         7.4530   -4.8340    1.0860 hc        1 MOL      0.024569
     71 H31         6.5860   -4.5630    2.5200 hc        1 MOL      0.024569
     72 N7          6.4920   -2.9770   -1.3540 n         1 MOL     -0.442716
     73 C23         6.8320   -2.4740   -2.6780 c3        1 MOL     -0.050671
     74 C24         6.5080   -1.0180   -3.0940 c         1 MOL      0.484473
     75 O13         7.3060   -0.3710   -3.7060 o         1 MOL     -0.514019
     76 H32         5.6920   -3.5750   -1.2270 hn        1 MOL      0.282599
     77 H33         6.3480   -3.0720   -3.4500 h1        1 MOL      0.079133
     78 H34         7.8970   -2.5870   -2.9090 h1        1 MOL      0.079133
     79 N8          5.3610   -0.5300   -2.5740 n         1 MOL     -0.347403
     80 C25         4.9310    0.9240   -2.6100 c3        1 MOL      0.207472
     81 C26         5.0400    1.4350   -1.1190 c         1 MOL      0.478862
     82 O14         4.7860    0.6850   -0.1760 o         1 MOL     -0.467326
     83 C27         3.4930    1.0080   -3.1390 c3        1 MOL      0.058862
     84 C28         3.3370    0.4750   -4.5270 c3        1 MOL     -0.461838
     85 O15         3.1860    2.4030   -3.3440 oh        1 MOL     -0.542295
     86 H35         4.8680   -1.1720   -1.9660 hn        1 MOL      0.186487
     87 H36         5.6490    1.4360   -3.2620 h1        1 MOL      0.058085
     88 H37         2.7910    0.5500   -2.4510 h1        1 MOL      0.139755
     89 H38         3.5720    2.7030   -4.1670 ho        1 MOL      0.386455
     90 H39         4.0040    0.7640   -5.3430 hc        1 MOL      0.127716
     91 H40         3.4640   -0.6120   -4.5580 hc        1 MOL      0.127716
     92 H41         2.2970    0.6700   -4.7780 hc        1 MOL      0.127716
     93 N9          5.1340    2.7940   -0.9960 n         1 MOL     -0.570793
     94 C29         4.7190    3.5140    0.2540 c3        1 MOL      0.118402
     95 C30         3.2760    4.0080    0.1620 c         1 MOL      0.253073
     96 O16         2.6600    4.3160    1.2240 o         1 MOL     -0.473570
     97 C31         5.8240    4.6110    0.4700 c3        1 MOL      0.133274
     98 C32         5.5340    5.3000    1.8190 c3        1 MOL      0.090212
     99 C33         5.7840    5.6880   -0.5860 c3        1 MOL     -0.363540
    100 C34         5.3470    4.3610    2.9670 c3        1 MOL     -0.334538
    101 H42         5.3990    3.3280   -1.8130 hn        1 MOL      0.279624
    102 H43         4.8440    2.7900    1.0530 h1        1 MOL      0.116958
    103 H44         6.8490    4.2610    0.5050 hc        1 MOL      0.029639
    104 H45         4.5950    5.8400    1.6810 hc        1 MOL      0.008949
    105 H46         6.3390    6.0280    1.9220 hc        1 MOL      0.008949
    106 H47         4.8240    6.1750   -0.7680 hc        1 MOL      0.078683
    107 H48         6.4060    6.5600   -0.3910 hc        1 MOL      0.078683
    108 H49         6.1740    5.1980   -1.4790 hc        1 MOL      0.078683
    109 H50         5.4790    5.0090    3.8360 hc        1 MOL      0.078574
    110 H51         4.3330    3.9810    2.9510 hc        1 MOL      0.078574
    111 H52         6.1060    3.5810    2.9040 hc        1 MOL      0.078574
    112 N10         2.7210    4.0300   -1.0550 n         1 MOL     -0.052316
    113 C35         1.3920    4.6240   -1.3750 c3        1 MOL     -0.043233
    114 C36         0.1820    3.6720   -1.1380 c         1 MOL      0.419329
    115 O17        -0.1960    2.9320   -2.0400 o         1 MOL     -0.542758
    116 C37         1.3960    5.2280   -2.7970 c3        1 MOL      0.442782
    117 C38         2.5770    6.2350   -3.0200 c3        1 MOL     -0.178468
    118 O18         0.2040    6.0130   -2.8670 oh        1 MOL     -0.667602
    119 H53         3.1500    3.5200   -1.8110 hn        1 MOL      0.181248
    120 H54         1.1880    5.4500   -0.7050 h1        1 MOL      0.061174
    121 H55         1.4160    4.4320   -3.5460 h1        1 MOL     -0.040788
    122 H56        -0.5360    5.5030   -3.1950 ho        1 MOL      0.414699
    123 H57         2.6230    7.0440   -2.2930 hc        1 MOL      0.032983
    124 H58         3.4910    5.6860   -2.7780 hc        1 MOL      0.032983
    125 H59         2.4890    6.5450   -4.0560 hc        1 MOL      0.032983
    126 N11        -0.3360    3.6340    0.0720 n         1 MOL     -0.473308
    127 C39        -1.4970    2.8100    0.4440 c3        1 MOL     -0.028648
    128 C40        -2.7860    2.9610   -0.3720 c         1 MOL      0.871195
    129 O19        -3.1140    4.0130   -0.8730 o         1 MOL     -0.608143
    130 C41        -1.7960    2.8330    2.0070 c3        1 MOL      0.365190
    131 C42        -2.3800    4.1060    2.5410 c3        1 MOL     -0.169665
    132 O20        -0.6170    2.6100    2.6850 oh        1 MOL     -0.567880
    133 H60        -0.0010    4.3130    0.7440 hn        1 MOL      0.326364
    134 H61        -1.2020    1.7830    0.2060 h1        1 MOL     -0.081188
    135 H62        -2.5420    2.0700    2.2350 h1        1 MOL      0.045799
    136 H63        -0.1970    1.7930    2.4070 ho        1 MOL      0.295462
    137 H64        -3.1660    4.3120    1.8180 hc        1 MOL      0.034440
    138 H65        -2.6910    4.1010    3.5860 hc        1 MOL      0.034440
    139 H66        -1.6020    4.8690    2.4920 hc        1 MOL      0.034440
    140 N12        -3.6320    1.8870   -0.3100 n         1 MOL     -0.719691
    141 C43        -4.9120    1.7610   -0.9650 c3        1 MOL      0.162394
    142 C44        -5.2910    0.4060   -1.5210 c         1 MOL      0.636107
    143 O21        -6.1900    0.3290   -2.3270 o         1 MOL     -0.661389
    144 C45        -6.0940    2.1720   -0.0260 c3        1 MOL     -0.280515
    145 C46        -7.0310    3.0300   -0.8550 c3        1 MOL      0.281506
    146 C47        -8.2580    3.3620    0.0020 c3        1 MOL      0.006997
    147 C48        -9.3020    4.1670   -0.7450 c3        1 MOL     -0.135208
    148 N13        -8.9810    5.6300   -0.6440 n4        1 MOL     -0.387873
    149 H67        -3.4070    1.0620    0.2310 hn        1 MOL      0.264981
    150 H68        -4.8910    2.3440   -1.8820 h1        1 MOL      0.009971
    151 H69        -5.7610    2.7540    0.8250 hc        1 MOL      0.117301
    152 H70        -6.5970    1.2530    0.2710 hc        1 MOL      0.117301
    153 H71        -7.3060    2.6520   -1.8370 hc        1 MOL     -0.062973
    154 H72        -6.5370    3.9890   -0.9890 hc        1 MOL     -0.062973
    155 H73        -7.9200    3.8190    0.9420 hc        1 MOL      0.043293
    156 H74        -8.7350    2.4580    0.3800 hc        1 MOL      0.043293
    157 H75       -10.2990    4.0030   -0.3260 hx        1 MOL      0.129573
    158 H76        -9.2670    3.7130   -1.7370 hx        1 MOL      0.129573
    159 H77        -8.6910    5.9190    0.2790 hn        1 MOL      0.336186
    160 H78        -8.2450    5.8650   -1.3000 hn        1 MOL      0.336186
    161 H79        -9.7850    6.1230   -0.9910 hn        1 MOL      0.336186
    162 N14        -4.7470   -0.6900   -0.9960 n         1 MOL     -0.175657
    163 C49        -5.0330   -2.0760   -1.4700 c3        1 MOL     -0.588390
    164 C50        -6.3790   -2.4960   -0.9330 c         1 MOL      0.409939
    165 O22        -6.7510   -2.2780    0.1870 o         1 MOL     -0.458509
    166 C51        -3.9580   -3.0040   -0.9250 c3        1 MOL      0.818180
    167 C52        -3.9560   -4.3960   -1.5350 c3        1 MOL     -1.315617
    168 C53        -4.0560   -4.5880   -3.0160 c         1 MOL      1.105431
    169 O23        -5.1610   -4.4990   -3.5400 o         1 MOL     -0.847140
    170 O24        -3.0440   -4.6460   -3.7850 o         1 MOL     -0.847140
    171 H80        -4.0770   -0.6270   -0.2410 hn        1 MOL     -0.019294
    172 H81        -4.9980   -2.0600   -2.5600 h1        1 MOL      0.298102
    173 H82        -4.0490   -3.0870    0.1580 hc        1 MOL     -0.052717
    174 H83        -2.9750   -2.5460   -1.0280 hc        1 MOL     -0.052717
    175 H84        -4.8250   -4.9320   -1.1510 hc        1 MOL      0.305507
    176 H85        -3.0590   -4.9090   -1.1950 hc        1 MOL      0.305507
    177 N15        -7.1210   -3.0810   -1.8740 n         1 MOL     -0.182773
    178 C54        -8.5420   -3.4480   -1.6660 c3        1 MOL      0.094119
    179 H86        -8.6170   -4.5210   -1.4890 h1        1 MOL      0.002369
    180 H87        -8.9340   -2.9100   -0.8040 h1        1 MOL      0.002369
    181 H88        -9.1180   -3.1860   -2.5530 h1        1 MOL      0.002369
    182 H89        -6.8640   -2.9960   -2.8510 hn        1 MOL      0.333760
    183 Ca1        -0.7480   -3.5890   -4.3270 Ca        1 MOL      1.687945
    184 O25         1.8010   -4.4570   -4.8950 oh        1 MOL     -0.838082
    185 H90         2.6440   -4.6130   -4.4720 ho        1 MOL      0.417595
    186 H91         2.0220   -4.3650   -5.8290 ho        1 MOL      0.417595
    187 O26        -2.5030   -2.0380   -5.5620 oh        1 MOL     -0.838082
    188 H92        -3.3830   -1.6940   -5.4680 ho        1 MOL      0.417595
    189 H93        -2.1670   -1.6520   -6.3760 ho        1 MOL      0.417595
    190 O27         0.6850   -2.0150   -5.8370 oh        1 MOL     -0.838082
    191 H94         0.3770   -1.3460   -6.4560 ho        1 MOL      0.417595
    192 H95         1.4620   -2.3730   -6.2580 ho        1 MOL      0.417595
@<TRIPOS>BOND
     1    1    2 1   
     2    1    4 1   
     3    1    5 1   
     4    1    6 1   
     5    2    3 2   
     6    2    7 1   
     7    7    8 1   
     8    7   15 1   
     9    8    9 1   
    10    8   11 1   
    11    8   16 1   
    12    9   10 2   
    13    9   19 1   
    14   11   12 1   
    15   11   17 1   
    16   11   18 1   
    17   12   13 1   
    18   12   14 1   
    19   19   20 1   
    20   19   28 1   
    21   20   21 1   
    22   20   23 1   
    23   20   29 1   
    24   21   22 2   
    25   21   41 1   
    26   23   24 1   
    27   23   30 1   
    28   23   31 1   
    29   24   25 1   
    30   24   32 1   
    31   24   33 1   
    32   25   26 1   
    33   25   34 1   
    34   25   35 1   
    35   26   27 1   
    36   26   36 1   
    37   26   37 1   
    38   27   38 1   
    39   27   39 1   
    40   27   40 1   
    41   41   42 1   
    42   41   49 1   
    43   42   43 1   
    44   42   45 1   
    45   42   50 1   
    46   43   44 2   
    47   43   53 1   
    48   45   46 1   
    49   45   51 1   
    50   45   52 1   
    51   46   47 1   
    52   46   48 1   
    53   53   54 1   
    54   53   57 1   
    55   54   55 1   
    56   54   58 1   
    57   54   59 1   
    58   55   56 2   
    59   55   60 1   
    60   60   61 1   
    61   60   68 1   
    62   61   62 1   
    63   61   64 1   
    64   61   69 1   
    65   62   63 2   
    66   62   72 1   
    67   64   65 1   
    68   64   70 1   
    69   64   71 1   
    70   65   66 1   
    71   65   67 1   
    72   72   73 1   
    73   72   76 1   
    74   73   74 1   
    75   73   77 1   
    76   73   78 1   
    77   74   75 2   
    78   74   79 1   
    79   79   80 1   
    80   79   86 1   
    81   80   81 1   
    82   80   83 1   
    83   80   87 1   
    84   81   82 2   
    85   81   93 1   
    86   83   84 1   
    87   83   85 1   
    88   83   88 1   
    89   84   90 1   
    90   84   91 1   
    91   84   92 1   
    92   85   89 1   
    93   93   94 1   
    94   93  101 1   
    95   94   95 1   
    96   94   97 1   
    97   94  102 1   
    98   95   96 2   
    99   95  112 1   
   100   97   98 1   
   101   97   99 1   
   102   97  103 1   
   103   98  100 1   
   104   98  104 1   
   105   98  105 1   
   106   99  106 1   
   107   99  107 1   
   108   99  108 1   
   109  100  109 1   
   110  100  110 1   
   111  100  111 1   
   112  112  113 1   
   113  112  119 1   
   114  113  114 1   
   115  113  116 1   
   116  113  120 1   
   117  114  115 2   
   118  114  126 1   
   119  116  117 1   
   120  116  118 1   
   121  116  121 1   
   122  117  123 1   
   123  117  124 1   
   124  117  125 1   
   125  118  122 1   
   126  126  127 1   
   127  126  133 1   
   128  127  128 1   
   129  127  130 1   
   130  127  134 1   
   131  128  129 2   
   132  128  140 1   
   133  130  131 1   
   134  130  132 1   
   135  130  135 1   
   136  131  137 1   
   137  131  138 1   
   138  131  139 1   
   139  132  136 1   
   140  140  141 1   
   141  140  149 1   
   142  141  142 1   
   143  141  144 1   
   144  141  150 1   
   145  142  143 2   
   146  142  162 1   
   147  144  145 1   
   148  144  151 1   
   149  144  152 1   
   150  145  146 1   
   151  145  153 1   
   152  145  154 1   
   153  146  147 1   
   154  146  155 1   
   155  146  156 1   
   156  147  148 1   
   157  147  157 1   
   158  147  158 1   
   159  148  159 1   
   160  148  160 1   
   161  148  161 1   
   162  162  163 1   
   163  162  171 1   
   164  163  164 1   
   165  163  166 1   
   166  163  172 1   
   167  164  165 2   
   168  164  177 1   
   169  166  167 1   
   170  166  173 1   
   171  166  174 1   
   172  167  168 1   
   173  167  175 1   
   174  167  176 1   
   175  168  169 1   
   176  168  170 1   
   177  177  178 1   
   178  177  182 1   
   179  178  179 1   
   180  178  180 1   
   181  178  181 1   
   182  184  185 1   
   183  184  186 1   
   184  187  188 1   
   185  187  189 1   
   186  190  191 1   
   187  190  192 1   
@<TRIPOS>SUBSTRUCTURE
     1 MOL         1 TEMP              0 ****  ****    0 ROOT
