@<TRIPOS>MOLECULE
MOL
  182   178     1     0     0
SMALL
resp


@<TRIPOS>ATOM
      1 C1          1.1590   -4.2960    5.8840 c3        1 MOL     -0.308731
      2 C2          1.0310   -4.0440    4.3970 c         1 MOL      0.774515
      3 O1          0.0030   -4.1960    3.7190 o         1 MOL     -0.601216
      4 H1          0.1920   -4.6000    6.2840 hc        1 MOL      0.092564
      5 H2          1.8880   -5.0870    6.0580 hc        1 MOL      0.092564
      6 H3          1.4860   -3.3820    6.3800 hc        1 MOL      0.092564
      7 N1          2.2020   -3.6070    3.8100 n         1 MOL     -0.695894
      8 C3          2.3790   -3.1660    2.4450 c3        1 MOL     -0.032948
      9 C4          2.4370   -4.3780    1.4130 c         1 MOL      0.836548
     10 O2          3.2250   -5.2920    1.6740 o         1 MOL     -0.527963
     11 C5          3.6000   -2.3650    2.5370 c3        1 MOL      0.008122
     12 C6          3.8840   -1.3690    1.3670 c         1 MOL      0.349596
     13 O3          4.5480   -0.3110    1.5140 o         1 MOL     -0.596081
     14 O4          3.3530   -1.6480    0.3020 o         1 MOL     -0.596081
     15 H4          2.9350   -3.4070    4.4760 hn        1 MOL      0.345415
     16 H5          1.5240   -2.5550    2.1740 h1        1 MOL     -0.041460
     17 H6          4.4250   -3.0580    2.6790 hc        1 MOL      0.056178
     18 H7          3.5150   -1.7330    3.4140 hc        1 MOL      0.056178
     19 N2          1.8260   -4.2310    0.1840 n         1 MOL     -0.669929
     20 C7          2.0770   -5.1030   -0.9360 c3        1 MOL     -0.118942
     21 C8          3.5020   -5.0450   -1.4430 c         1 MOL      0.622737
     22 O5          4.0470   -6.0730   -1.6500 o         1 MOL     -0.557437
     23 C9          1.1600   -4.8910   -2.2180 c3        1 MOL      0.114068
     24 C10        -0.3280   -5.0390   -1.8510 c3        1 MOL      0.031516
     25 C11        -1.1700   -4.9780   -3.1530 c3        1 MOL     -0.381114
     26 C12        -2.6220   -4.7870   -2.8000 c3        1 MOL      0.341443
     27 N3         -3.6990   -5.6660   -3.3240 n4        1 MOL     -0.341873
     28 H8          1.5610   -3.2800   -0.0020 hn        1 MOL      0.386269
     29 H9          1.9540   -6.1530   -0.6730 h1        1 MOL      0.115638
     30 H10         1.3440   -5.7260   -2.8850 hc        1 MOL      0.004503
     31 H11         1.3830   -3.9590   -2.7360 hc        1 MOL      0.004503
     32 H12        -0.7650   -4.2290   -1.2660 hc        1 MOL      0.044863
     33 H13        -0.5630   -6.0440   -1.5120 hc        1 MOL      0.044863
     34 H14        -1.0100   -5.9150   -3.6850 hc        1 MOL      0.095727
     35 H15        -0.7270   -4.1690   -3.7430 hc        1 MOL      0.095727
     36 H16        -2.9870   -3.7950   -3.0940 hx        1 MOL     -0.000568
     37 H17        -2.7690   -4.7040   -1.7310 hx        1 MOL     -0.000568
     38 H18        -3.5160   -5.7110   -4.3140 hn        1 MOL      0.268853
     39 H19        -3.6500   -6.5660   -2.8590 hn        1 MOL      0.268853
     40 H20        -4.6060   -5.2280   -3.2330 hn        1 MOL      0.268853
     41 N4          4.1420   -3.8460   -1.4820 n         1 MOL     -0.301891
     42 C13         5.4770   -3.6400   -2.2060 c3        1 MOL      0.100142
     43 C14         6.6110   -2.9430   -1.4490 c         1 MOL      0.446626
     44 O6          7.7630   -3.0650   -1.7930 o         1 MOL     -0.502563
     45 C15         5.1900   -2.7480   -3.4490 c3        1 MOL     -0.396895
     46 C16         4.4920   -1.4710   -3.0670 c         1 MOL      0.947682
     47 O7          4.9110   -0.6370   -2.2530 o         1 MOL     -0.785800
     48 O8          3.4190   -1.2220   -3.5680 o         1 MOL     -0.785800
     49 H21         3.6400   -3.0970   -1.0280 hn        1 MOL     -0.006824
     50 H22         5.9300   -4.5820   -2.5180 h1        1 MOL      0.106462
     51 H23         4.5070   -3.3400   -4.0610 hc        1 MOL      0.101961
     52 H24         6.1490   -2.5020   -3.9030 hc        1 MOL      0.101961
     53 N5          6.2210   -2.3710   -0.2410 n         1 MOL     -0.259640
     54 C17         7.1720   -1.8990    0.8010 c3        1 MOL     -0.232581
     55 C18         7.6270   -0.4920    0.5490 c         1 MOL      0.491153
     56 O9          8.6680   -0.1030    1.1140 o         1 MOL     -0.526236
     57 H25         5.2680   -2.0710   -0.0990 hn        1 MOL      0.244871
     58 H26         8.0480   -2.5420    0.8140 h1        1 MOL      0.138283
     59 H27         6.6780   -1.9330    1.7760 h1        1 MOL      0.138283
     60 N6          6.9620    0.3280   -0.2740 n         1 MOL     -0.085323
     61 C19         7.1820    1.7430   -0.1080 c3        1 MOL      0.073006
     62 C20         5.9080    2.5660   -0.1120 c         1 MOL      0.506093
     63 O10         4.8470    2.1410   -0.5180 o         1 MOL     -0.494434
     64 C21         8.2700    2.2960   -1.0810 c3        1 MOL     -0.286310
     65 C22         9.6100    1.4030   -1.2090 c         1 MOL      0.717470
     66 N7          9.6260    0.5590   -2.2000 n         1 MOL     -0.839243
     67 O11        10.5530    1.6200   -0.4560 o         1 MOL     -0.545742
     68 H28         6.2580   -0.0450   -0.8900 hn        1 MOL      0.072789
     69 H29         7.6290    1.9010    0.8700 h1        1 MOL      0.050427
     70 H30         8.6110    3.2510   -0.6980 hc        1 MOL      0.051160
     71 H31         7.9980    2.4450   -2.1280 hc        1 MOL      0.051160
     72 H32         8.8020    0.3590   -2.7400 hn        1 MOL      0.385572
     73 H33        10.3070   -0.1730   -2.1220 hn        1 MOL      0.385572
     74 N8          5.9540    3.7810    0.3550 n         1 MOL     -0.402001
     75 C23         4.9400    4.8840    0.0130 c3        1 MOL     -0.244156
     76 C24         3.6730    4.9410    0.8580 c         1 MOL      0.698975
     77 O12         3.7900    4.7350    2.0370 o         1 MOL     -0.498682
     78 H34         6.8600    4.0850    0.6870 hn        1 MOL      0.335434
     79 H35         4.6800    4.6760   -1.0230 h1        1 MOL      0.111399
     80 H36         5.4470    5.8260    0.2570 h1        1 MOL      0.111399
     81 N9          2.5070    5.1310    0.2560 n         1 MOL     -0.568038
     82 C25         1.2900    4.6350    0.8740 c3        1 MOL     -0.027488
     83 C26         1.3470    3.1490    1.2370 c         1 MOL      0.531327
     84 O13         2.2120    2.4220    0.7640 o         1 MOL     -0.471815
     85 C27         0.1140    4.7910   -0.0500 c3        1 MOL     -0.031765
     86 C28        -0.0850    6.2080   -0.5280 ca        1 MOL      0.039398
     87 C29        -0.2020    7.2620    0.4240 ca        1 MOL     -0.155761
     88 C30        -0.0510    6.5470   -1.9190 ca        1 MOL     -0.155761
     89 C31        -0.4170    8.5690   -0.0060 ca        1 MOL     -0.251307
     90 C32        -0.3060    7.8530   -2.3560 ca        1 MOL     -0.251307
     91 C33        -0.4980    8.8560   -1.3640 ca        1 MOL      0.322717
     92 O14        -0.7490   10.0750   -1.8370 oh        1 MOL     -0.449203
     93 H37         2.5030    5.3520   -0.7290 hn        1 MOL      0.318680
     94 H38         1.0510    5.2210    1.7650 h1        1 MOL      0.092295
     95 H39        -0.8550    4.4830    0.3390 hc        1 MOL      0.025319
     96 H40         0.2640    4.0890   -0.8670 hc        1 MOL      0.025319
     97 H41        -0.1490    7.0310    1.4780 ha        1 MOL      0.127245
     98 H42         0.0990    5.7260   -2.6080 ha        1 MOL      0.127245
     99 H43        -0.4220    9.4330    0.6400 ha        1 MOL      0.158691
    100 H44        -0.3490    8.1290   -3.3980 ha        1 MOL      0.158691
    101 H45        -0.9740   10.6300   -1.0960 ho        1 MOL      0.357451
    102 N10         0.5830    2.7930    2.2400 n         1 MOL     -0.439802
    103 C34         0.2460    1.4850    2.7710 c3        1 MOL     -0.030511
    104 C35        -0.0320    0.3880    1.6280 c         1 MOL      0.343094
    105 O15         0.8750    0.2080    0.8000 o         1 MOL     -0.399205
    106 C36         1.3160    0.9780    3.8080 c3        1 MOL      0.313986
    107 C37         0.9600   -0.4370    4.3130 c3        1 MOL     -0.135104
    108 C38         1.6010    1.9440    4.8970 c3        1 MOL     -0.260074
    109 C39        -0.2220   -0.5820    5.3080 c3        1 MOL     -0.154921
    110 H46        -0.0040    3.5430    2.5630 hn        1 MOL      0.279527
    111 H47        -0.5780    1.5620    3.4750 h1        1 MOL      0.050828
    112 H48         2.2510    0.8410    3.2520 hc        1 MOL     -0.000733
    113 H49         1.8040   -0.7940    4.9020 hc        1 MOL      0.070503
    114 H50         0.7290   -1.0530    3.4350 hc        1 MOL      0.070503
    115 H51         2.1830    2.8110    4.5820 hc        1 MOL      0.063504
    116 H52         0.6370    2.3070    5.2590 hc        1 MOL      0.063504
    117 H53         2.0650    1.4080    5.7170 hc        1 MOL      0.063504
    118 H54         0.0490   -0.0430    6.2120 hc        1 MOL      0.037443
    119 H55        -1.1320   -0.1300    4.9230 hc        1 MOL      0.037443
    120 H56        -0.4860   -1.6200    5.4800 hc        1 MOL      0.037443
    121 N11        -1.1940   -0.1540    1.5860 n         1 MOL     -0.411611
    122 C40        -1.5870   -1.2100    0.6580 c3        1 MOL      0.068298
    123 C41        -3.0800   -1.0690    0.1400 c         1 MOL      0.509037
    124 O16        -3.4530   -1.8730   -0.7250 o         1 MOL     -0.539188
    125 C42        -1.4050   -2.5450    1.3240 c3        1 MOL      0.561905
    126 O17        -2.0440   -2.7020    2.5510 oh        1 MOL     -0.709064
    127 H57        -1.7870    0.1390    2.3500 hn        1 MOL      0.288528
    128 H58        -0.9910   -0.9780   -0.2220 h1        1 MOL      0.068967
    129 H59        -0.3410   -2.7420    1.4630 h1        1 MOL     -0.118103
    130 H60        -1.7760   -3.3130    0.6570 h1        1 MOL     -0.118103
    131 H61        -1.7210   -3.4730    3.0390 ho        1 MOL      0.451192
    132 N12        -3.9810   -0.2320    0.6980 n         1 MOL     -0.438908
    133 C43        -5.3710   -0.0840    0.2180 c3        1 MOL      0.034844
    134 C44        -5.4860    0.4690   -1.2190 c         1 MOL      0.642158
    135 O18        -4.4050    0.9490   -1.6940 o         1 MOL     -0.579445
    136 C45        -6.1190    0.7270    1.2360 c3        1 MOL     -0.063931
    137 H62        -3.6980    0.5520    1.2770 hn        1 MOL      0.261587
    138 H63        -5.8290   -1.0690    0.0890 h1        1 MOL      0.115293
    139 H64        -7.0990    0.9540    0.8120 hc        1 MOL      0.041541
    140 H65        -6.0670    0.2410    2.2110 hc        1 MOL      0.041541
    141 H66        -5.6380    1.7020    1.3370 hc        1 MOL      0.041541
    142 N13        -6.6250    0.3130   -1.9750 n         1 MOL     -0.656867
    143 C46        -7.8810   -0.4380   -1.6260 c3        1 MOL      0.211690
    144 C47        -9.1980    0.2200   -2.2030 c         1 MOL      0.427238
    145 O19        -9.2540    0.7300   -3.3050 o         1 MOL     -0.520268
    146 C48        -7.7880   -1.8460   -2.2360 c3        1 MOL     -0.283262
    147 H67        -6.6110    0.7130   -2.9000 hn        1 MOL      0.351653
    148 H68        -7.9190   -0.5560   -0.5520 h1        1 MOL     -0.000404
    149 H69        -8.7050   -2.4040   -2.0730 hc        1 MOL      0.087853
    150 H70        -7.7450   -1.8210   -3.3240 hc        1 MOL      0.087853
    151 H71        -6.9710   -2.4540   -1.8360 hc        1 MOL      0.087853
    152 N14       -10.2580    0.3820   -1.4280 n         1 MOL     -0.367541
    153 C49       -10.4370   -0.0940   -0.0260 c3        1 MOL      0.179249
    154 C50        -9.8140    0.7130    1.1560 c         1 MOL      0.264519
    155 O20        -9.5930    0.2950    2.2580 o         1 MOL     -0.446648
    156 C51       -11.9820    0.0660    0.2010 c3        1 MOL     -0.295605
    157 C52       -12.7360   -1.1610   -0.3970 c3        1 MOL     -0.233714
    158 C53       -14.2570   -1.1480   -0.2040 c         1 MOL      0.748949
    159 O21       -14.7900   -0.4000    0.6530 o         1 MOL     -0.673578
    160 O22       -14.9400   -1.9710   -0.8140 o         1 MOL     -0.673578
    161 H72       -10.8590    1.1310   -1.7250 hn        1 MOL      0.315362
    162 H73       -10.2230   -1.1590    0.0830 h1        1 MOL      0.044568
    163 H74       -12.4020    0.9470   -0.2860 hc        1 MOL      0.129482
    164 H75       -12.0810    0.0150    1.2890 hc        1 MOL      0.129482
    165 H76       -12.4220   -2.0090    0.2180 hc        1 MOL      0.065257
    166 H77       -12.4820   -1.3510   -1.4380 hc        1 MOL      0.065257
    167 N15        -9.7040    2.0270    0.8920 n         1 MOL     -0.207987
    168 C54        -8.9980    2.9490    1.7490 c3        1 MOL     -0.180705
    169 H78        -9.7160    3.5580    2.2960 h1        1 MOL      0.089742
    170 H79        -8.3820    2.3910    2.4550 h1        1 MOL      0.089742
    171 H80        -8.3620    3.5940    1.1420 h1        1 MOL      0.089742
    172 H81       -10.1090    2.4380    0.0650 hn        1 MOL      0.207953
    173 Ca1         2.9350    0.4980   -1.0560 Ca        1 MOL      1.701289
    174 O23         1.3530   -1.4790   -1.9680 oh        1 MOL     -0.862963
    175 H82         0.5260   -1.3230   -2.4260 ho        1 MOL      0.426292
    176 H83         2.0060   -1.5180   -2.6610 ho        1 MOL      0.426292
    177 O24         0.7640    1.5820   -2.0660 oh        1 MOL     -0.862963
    178 H84         0.7640    2.1940   -2.8060 ho        1 MOL      0.426292
    179 H85        -0.1360    1.2780   -1.9980 ho        1 MOL      0.426292
    180 O25         3.4460    2.1010   -3.2320 oh        1 MOL     -0.862963
    181 H86         3.3480    1.9640   -4.1820 ho        1 MOL      0.426292
    182 H87         4.1610    2.7260   -3.1540 ho        1 MOL      0.426292
@<TRIPOS>BOND
     1    1    2 1   
     2    1    4 1   
     3    1    5 1   
     4    1    6 1   
     5    2    3 2   
     6    2    7 1   
     7    7    8 1   
     8    7   15 1   
     9    8    9 1   
    10    8   11 1   
    11    8   16 1   
    12    9   10 2   
    13    9   19 1   
    14   11   12 1   
    15   11   17 1   
    16   11   18 1   
    17   12   13 1   
    18   12   14 1   
    19   19   20 1   
    20   19   28 1   
    21   20   21 1   
    22   20   23 1   
    23   20   29 1   
    24   21   22 2   
    25   21   41 1   
    26   23   24 1   
    27   23   30 1   
    28   23   31 1   
    29   24   25 1   
    30   24   32 1   
    31   24   33 1   
    32   25   26 1   
    33   25   34 1   
    34   25   35 1   
    35   26   27 1   
    36   26   36 1   
    37   26   37 1   
    38   27   38 1   
    39   27   39 1   
    40   27   40 1   
    41   41   42 1   
    42   41   49 1   
    43   42   43 1   
    44   42   45 1   
    45   42   50 1   
    46   43   44 2   
    47   43   53 1   
    48   45   46 1   
    49   45   51 1   
    50   45   52 1   
    51   46   47 1   
    52   46   48 1   
    53   53   54 1   
    54   53   57 1   
    55   54   55 1   
    56   54   58 1   
    57   54   59 1   
    58   55   56 2   
    59   55   60 1   
    60   60   61 1   
    61   60   68 1   
    62   61   62 1   
    63   61   64 1   
    64   61   69 1   
    65   62   63 2   
    66   62   74 1   
    67   64   65 1   
    68   64   70 1   
    69   64   71 1   
    70   65   66 1   
    71   65   67 2   
    72   66   72 1   
    73   66   73 1   
    74   74   75 1   
    75   74   78 1   
    76   75   76 1   
    77   75   79 1   
    78   75   80 1   
    79   76   77 2   
    80   76   81 1   
    81   81   82 1   
    82   81   93 1   
    83   82   83 1   
    84   82   85 1   
    85   82   94 1   
    86   83   84 2   
    87   83  102 1   
    88   85   86 1   
    89   85   95 1   
    90   85   96 1   
    91   86   87 ar  
    92   86   88 ar  
    93   87   89 ar  
    94   87   97 1   
    95   88   90 ar  
    96   88   98 1   
    97   89   91 ar  
    98   89   99 1   
    99   90   91 ar  
   100   90  100 1   
   101   91   92 1   
   102   92  101 1   
   103  102  103 1   
   104  102  110 1   
   105  103  104 1   
   106  103  106 1   
   107  103  111 1   
   108  104  105 2   
   109  104  121 1   
   110  106  107 1   
   111  106  108 1   
   112  106  112 1   
   113  107  109 1   
   114  107  113 1   
   115  107  114 1   
   116  108  115 1   
   117  108  116 1   
   118  108  117 1   
   119  109  118 1   
   120  109  119 1   
   121  109  120 1   
   122  121  122 1   
   123  121  127 1   
   124  122  123 1   
   125  122  125 1   
   126  122  128 1   
   127  123  124 2   
   128  123  132 1   
   129  125  126 1   
   130  125  129 1   
   131  125  130 1   
   132  126  131 1   
   133  132  133 1   
   134  132  137 1   
   135  133  134 1   
   136  133  136 1   
   137  133  138 1   
   138  134  135 2   
   139  134  142 1   
   140  136  139 1   
   141  136  140 1   
   142  136  141 1   
   143  142  143 1   
   144  142  147 1   
   145  143  144 1   
   146  143  146 1   
   147  143  148 1   
   148  144  145 2   
   149  144  152 1   
   150  146  149 1   
   151  146  150 1   
   152  146  151 1   
   153  152  153 1   
   154  152  161 1   
   155  153  154 1   
   156  153  156 1   
   157  153  162 1   
   158  154  155 2   
   159  154  167 1   
   160  156  157 1   
   161  156  163 1   
   162  156  164 1   
   163  157  158 1   
   164  157  165 1   
   165  157  166 1   
   166  158  159 1   
   167  158  160 1   
   168  167  168 1   
   169  167  172 1   
   170  168  169 1   
   171  168  170 1   
   172  168  171 1   
   173  174  175 1   
   174  174  176 1   
   175  177  178 1   
   176  177  179 1   
   177  180  181 1   
   178  180  182 1   
@<TRIPOS>SUBSTRUCTURE
     1 MOL         1 TEMP              0 ****  ****    0 ROOT
