@<TRIPOS>MOLECULE
MOL
  181   177     1     0     0
SMALL
resp


@<TRIPOS>ATOM
      1 C1          3.0480   -2.4520    3.8100 c3        1 MOL     -0.411185
      2 C2          4.4660   -1.8100    3.5940 c         1 MOL      0.769543
      3 O1          4.6270   -0.6870    4.0350 o         1 MOL     -0.611706
      4 H1          2.8240   -2.4860    4.8760 hc        1 MOL      0.102782
      5 H2          2.2950   -1.8490    3.3000 hc        1 MOL      0.102782
      6 H3          3.0410   -3.4640    3.4040 hc        1 MOL      0.102782
      7 N1          5.4360   -2.5370    3.0660 n         1 MOL     -0.671911
      8 C3          6.8170   -2.1010    2.8140 c3        1 MOL      0.333735
      9 C4          6.8320   -1.1920    1.5690 c         1 MOL      0.246015
     10 O2          6.4680   -1.6170    0.5340 o         1 MOL     -0.331150
     11 C5          7.7220   -3.2790    2.5340 c3        1 MOL     -0.167623
     12 C6          9.1470   -2.8840    2.2880 c         1 MOL      0.725471
     13 O3          9.4230   -1.6720    2.4930 o         1 MOL     -0.726197
     14 O4          9.9850   -3.7640    2.0720 o         1 MOL     -0.726197
     15 H4          5.2370   -3.5220    2.8910 hn        1 MOL      0.285125
     16 H5          7.2430   -1.6680    3.7240 h1        1 MOL      0.023238
     17 H6          7.2730   -3.8090    1.6930 hc        1 MOL     -0.009282
     18 H7          7.5950   -3.9110    3.4110 hc        1 MOL     -0.009282
     19 N2          7.2860    0.0810    1.7170 n         1 MOL     -0.395842
     20 C7          7.2980    1.0390    0.6370 c3        1 MOL      0.284528
     21 C8          5.9200    1.1430    0.0150 c         1 MOL      0.348733
     22 O5          4.8910    1.2630    0.7200 o         1 MOL     -0.444033
     23 C9          7.6290    2.4510    1.1320 c3        1 MOL     -0.355973
     24 H8          7.6130    0.3430    2.6350 hn        1 MOL      0.283445
     25 H9          7.9660    0.6680   -0.1480 h1        1 MOL      0.037030
     26 H10         7.5400    3.1480    0.2980 hc        1 MOL      0.092382
     27 H11         6.9620    2.7640    1.9420 hc        1 MOL      0.092382
     28 H12         8.7000    2.5630    1.3050 hc        1 MOL      0.092382
     29 N3          5.8350    1.1820   -1.3280 n         1 MOL     -0.401547
     30 C10         4.6810    0.7790   -2.1070 c3        1 MOL     -0.321547
     31 C11         4.2740    1.9220   -3.0920 c         1 MOL      0.834586
     32 O6          3.1320    1.9340   -3.5050 o         1 MOL     -0.525201
     33 C12         5.1150   -0.5680   -2.8140 c3        1 MOL      0.165146
     34 C13         3.9130   -1.2760   -3.3990 c         1 MOL      0.516666
     35 O7          3.8720   -1.4560   -4.5930 o         1 MOL     -0.655168
     36 O8          2.9650   -1.6480   -2.6210 o         1 MOL     -0.655168
     37 H13         6.6350    1.4820   -1.8660 hn        1 MOL      0.212581
     38 H14         3.8560    0.6620   -1.4030 h1        1 MOL      0.152080
     39 H15         5.5200   -1.1510   -1.9810 hc        1 MOL     -0.063884
     40 H16         5.7280   -0.3630   -3.6910 hc        1 MOL     -0.063884
     41 N4          5.1570    2.8630   -3.4290 n         1 MOL     -0.482980
     42 C14         4.8580    3.9110   -4.3490 c3        1 MOL     -0.242916
     43 C15         3.8190    4.9300   -3.9220 c         1 MOL      0.599246
     44 O9          3.9390    6.0530   -4.4730 o         1 MOL     -0.563232
     45 H17         6.0460    2.9020   -2.9400 hn        1 MOL      0.310510
     46 H18         4.5850    3.5070   -5.3280 h1        1 MOL      0.134481
     47 H19         5.7990    4.4230   -4.5690 h1        1 MOL      0.134481
     48 N5          2.8890    4.7020   -2.9130 n         1 MOL     -0.443717
     49 C16         1.7910    5.5410   -2.4660 c3        1 MOL      0.203916
     50 C17         1.3760    5.3280   -1.0280 c         1 MOL      0.466481
     51 O10         1.3710    4.1770   -0.5360 o         1 MOL     -0.427608
     52 C18         0.5760    5.2740   -3.3730 c3        1 MOL     -0.337639
     53 C19        -0.6240    6.1520   -3.1230 c         1 MOL      0.817992
     54 N6         -1.7730    5.5830   -3.2580 n         1 MOL     -0.877530
     55 O11        -0.4790    7.3160   -2.9600 o         1 MOL     -0.623326
     56 H20         3.0730    3.9640   -2.2510 hn        1 MOL      0.213621
     57 H21         2.1610    6.5650   -2.5920 h1        1 MOL     -0.000082
     58 H22         0.2780    4.2210   -3.2990 hc        1 MOL      0.114715
     59 H23         0.9080    5.4790   -4.3890 hc        1 MOL      0.114715
     60 H24        -1.8830    4.5770   -3.2960 hn        1 MOL      0.374040
     61 H25        -2.6530    6.0810   -3.3720 hn        1 MOL      0.374040
     62 N7          0.9600    6.4640   -0.4350 n         1 MOL     -0.467597
     63 C20         0.3840    6.5220    0.9120 c3        1 MOL     -0.107522
     64 C21        -1.1100    6.0910    1.0500 c         1 MOL      0.555168
     65 O12        -1.8010    5.8700    0.0390 o         1 MOL     -0.426974
     66 H26         1.0360    7.3220   -0.9530 hn        1 MOL      0.329253
     67 H27         0.5200    7.5420    1.2590 h1        1 MOL      0.096132
     68 H28         0.9920    5.8370    1.5080 h1        1 MOL      0.096132
     69 N8         -1.6580    5.9840    2.2650 n         1 MOL     -0.423694
     70 C22        -3.1210    5.7890    2.3980 c3        1 MOL     -0.360855
     71 C23        -3.6640    4.3430    2.6150 c         1 MOL      0.545587
     72 O13        -4.8600    4.0540    2.6050 o         1 MOL     -0.564796
     73 C24        -3.7170    6.6390    3.5810 c3        1 MOL      0.432588
     74 C25        -3.1840    6.1640    4.9710 c3        1 MOL     -0.312351
     75 O14        -3.4780    8.0490    3.3740 oh        1 MOL     -0.640364
     76 H29        -1.1770    6.5010    2.9880 hn        1 MOL      0.262057
     77 H30        -3.5740    6.1720    1.4720 h1        1 MOL      0.198960
     78 H31        -4.8030    6.7070    3.5840 h1        1 MOL      0.055305
     79 H32        -2.5790    8.2740    3.5990 ho        1 MOL      0.387027
     80 H33        -3.9840    5.6180    5.4540 hc        1 MOL      0.075391
     81 H34        -2.4150    5.4120    4.7930 hc        1 MOL      0.075391
     82 H35        -2.7310    6.9930    5.5280 hc        1 MOL      0.075391
     83 N9         -2.7990    3.3860    2.9230 n         1 MOL     -0.089988
     84 C26        -2.9870    1.9750    3.1930 c3        1 MOL      0.024439
     85 C27        -2.2300    1.0740    2.1630 c         1 MOL      0.346459
     86 O15        -1.1580    1.5140    1.6900 o         1 MOL     -0.457201
     87 C28        -2.6030    1.6830    4.6410 c3        1 MOL      0.294306
     88 C29        -3.6640    2.2200    5.6740 c3        1 MOL     -0.123214
     89 C30        -2.2170    0.2070    4.9250 c3        1 MOL     -0.317267
     90 C31        -5.1620    1.7910    5.4800 c3        1 MOL      0.016384
     91 H36        -1.8230    3.6090    2.7660 hn        1 MOL      0.139255
     92 H37        -4.0680    1.8240    3.1570 h1        1 MOL     -0.012577
     93 H38        -1.7220    2.2840    4.8410 hc        1 MOL     -0.052227
     94 H39        -3.5440    3.2960    5.6710 hc        1 MOL      0.005068
     95 H40        -3.4810    1.7850    6.6520 hc        1 MOL      0.005068
     96 H41        -3.0530   -0.4340    4.6630 hc        1 MOL      0.086009
     97 H42        -1.3710   -0.0210    4.2760 hc        1 MOL      0.086009
     98 H43        -1.9130    0.1230    5.9730 hc        1 MOL      0.086009
     99 H44        -5.1980    0.7010    5.4740 hc        1 MOL      0.001060
    100 H45        -5.7920    2.0850    6.3180 hc        1 MOL      0.001060
    101 H46        -5.7400    2.2190    4.6660 hc        1 MOL      0.001060
    102 N10        -2.7670   -0.0780    1.8430 n         1 MOL     -0.326001
    103 C32        -2.2270   -0.9820    0.8300 c3        1 MOL      0.219043
    104 C33        -3.2220   -1.4540   -0.2420 c         1 MOL      0.418612
    105 O16        -3.0220   -2.5590   -0.8350 o         1 MOL     -0.438749
    106 C34        -1.3920   -2.0690    1.4410 c3        1 MOL     -0.121412
    107 C35        -0.1180   -2.4630    0.7540 c         1 MOL      0.894304
    108 O17         0.2920   -2.0390   -0.3500 o         1 MOL     -0.790563
    109 O18         0.6360   -3.3140    1.3010 o         1 MOL     -0.790563
    110 H47        -3.6400   -0.3770    2.2680 hn        1 MOL      0.221775
    111 H48        -1.5140   -0.4360    0.2090 h1        1 MOL      0.045999
    112 H49        -1.9280   -2.9930    1.6470 hc        1 MOL     -0.013424
    113 H50        -1.0860   -1.6480    2.3980 hc        1 MOL     -0.013424
    114 N11        -4.2980   -0.7070   -0.4620 n         1 MOL     -0.404328
    115 C36        -5.3020   -0.9190   -1.5540 c3        1 MOL      0.045419
    116 C37        -6.0210   -2.2740   -1.3090 c         1 MOL      0.412084
    117 O19        -6.4440   -2.5430   -0.2020 o         1 MOL     -0.516918
    118 C38        -6.3450    0.2440   -1.5300 c3        1 MOL     -0.267668
    119 C39        -5.8090    1.6390   -1.9140 ca        1 MOL      0.161614
    120 C40        -5.2500    2.4690   -0.9750 ca        1 MOL     -0.175045
    121 C41        -5.8880    2.0730   -3.2000 ca        1 MOL     -0.175045
    122 C42        -4.8750    3.8330   -1.1790 ca        1 MOL     -0.034906
    123 C43        -5.4350    3.3650   -3.5250 ca        1 MOL     -0.034906
    124 C44        -5.0690    4.3050   -2.4700 ca        1 MOL     -0.193088
    125 H51        -4.3170    0.2220   -0.0590 hn        1 MOL      0.257440
    126 H52        -4.7800   -0.9230   -2.5000 h1        1 MOL      0.094578
    127 H53        -6.6970    0.2480   -0.5050 hc        1 MOL      0.106703
    128 H54        -7.1900    0.0230   -2.1820 hc        1 MOL      0.106703
    129 H55        -5.1000    2.0580    0.0110 ha        1 MOL      0.093339
    130 H56        -6.2330    1.4200   -3.9920 ha        1 MOL      0.093339
    131 H57        -4.5540    4.4190   -0.3350 ha        1 MOL      0.081161
    132 H58        -5.4740    3.7290   -4.5350 ha        1 MOL      0.081161
    133 H59        -4.6590    5.2740   -2.7360 ha        1 MOL      0.113019
    134 N12        -6.1730   -3.1420   -2.3430 n         1 MOL     -0.132009
    135 C45        -6.5800   -4.5670   -2.0970 c3        1 MOL     -0.028862
    136 C46        -5.7520   -5.4430   -1.0850 c         1 MOL      0.346941
    137 O20        -6.3930   -6.3630   -0.5110 o         1 MOL     -0.520089
    138 C47        -6.3070   -5.1140   -3.5100 c3        1 MOL      0.019784
    139 C48        -5.3930   -4.2330   -4.2880 c3        1 MOL     -0.022340
    140 C49        -5.7250   -2.8560   -3.7130 c3        1 MOL     -0.104594
    141 H60        -7.6150   -4.6870   -1.7650 h1        1 MOL      0.072793
    142 H61        -5.9140   -6.1390   -3.4940 hc        1 MOL      0.015886
    143 H62        -7.2350   -5.3490   -4.0310 hc        1 MOL      0.015886
    144 H63        -4.3590   -4.5470   -4.1010 hc        1 MOL      0.029621
    145 H64        -5.7300   -4.2640   -5.3230 hc        1 MOL      0.029621
    146 H65        -4.8090   -2.2670   -3.8260 h1        1 MOL      0.069298
    147 H66        -6.5930   -2.4300   -4.2090 h1        1 MOL      0.069298
    148 N13        -4.4820   -5.2150   -0.8910 n         1 MOL     -0.116195
    149 C50        -3.6680   -6.0590    0.0110 c3        1 MOL     -0.554534
    150 C51        -4.1130   -5.9290    1.5060 c         1 MOL      0.585129
    151 O21        -3.9880   -6.9120    2.2220 o         1 MOL     -0.543157
    152 C52        -2.1520   -5.7920   -0.1110 c3        1 MOL      0.398444
    153 C53        -1.4660   -5.8000   -1.4740 c3        1 MOL     -0.441580
    154 C54         0.0210   -5.3160   -1.3660 c         1 MOL      0.764718
    155 O22         0.7710   -5.7650   -0.4740 o         1 MOL     -0.741866
    156 O23         0.3900   -4.4390   -2.1700 o         1 MOL     -0.741866
    157 H67        -4.0330   -4.3850   -1.2520 hn        1 MOL      0.269484
    158 H68        -3.8860   -7.0680   -0.3400 h1        1 MOL      0.201001
    159 H69        -1.6900   -6.5060    0.5770 hc        1 MOL     -0.022130
    160 H70        -1.9940   -4.7740    0.2260 hc        1 MOL     -0.022130
    161 H71        -1.9820   -5.1090   -2.1360 hc        1 MOL      0.082231
    162 H72        -1.3480   -6.8370   -1.8100 hc        1 MOL      0.082231
    163 N14        -4.4490   -4.7400    2.0240 n         1 MOL     -0.148449
    164 C55        -4.7560   -4.5140    3.3820 c3        1 MOL     -0.213126
    165 H73        -4.1690   -5.1900    4.0040 h1        1 MOL      0.074668
    166 H74        -4.5190   -3.4830    3.6430 h1        1 MOL      0.074668
    167 H75        -5.8180   -4.6960    3.5510 h1        1 MOL      0.074668
    168 H76        -4.4260   -3.8950    1.4680 hn        1 MOL      0.210275
    169 Ca1         2.3840   -3.4010   -0.8330 Ca        1 MOL      1.703746
    170 O24         5.1210   -3.5590   -0.9070 oh        1 MOL     -0.799365
    171 H77         5.4910   -4.4410   -0.9540 ho        1 MOL      0.396745
    172 H78         5.8230   -3.0270   -0.5270 ho        1 MOL      0.396745
    173 O25         3.3620   -5.0470    1.1070 oh        1 MOL     -0.799365
    174 H79         4.1550   -5.5740    1.2050 ho        1 MOL      0.396745
    175 H80         2.8920   -5.1660    1.9350 ho        1 MOL      0.396745
    176 O26         3.2960   -1.1860    0.4850 oh        1 MOL     -0.799365
    177 H81         2.9970   -0.2850    0.5850 ho        1 MOL      0.396745
    178 H82         4.2460   -1.1260    0.4990 ho        1 MOL      0.396745
    179 O27         2.9380   -5.5170   -2.4280 oh        1 MOL     -0.799365
    180 H83         3.4570   -6.3250   -2.3690 ho        1 MOL      0.396745
    181 H84         2.3930   -5.6490   -3.2110 ho        1 MOL      0.396745
@<TRIPOS>BOND
     1    1    2 1   
     2    1    4 1   
     3    1    5 1   
     4    1    6 1   
     5    2    3 2   
     6    2    7 1   
     7    7    8 1   
     8    7   15 1   
     9    8    9 1   
    10    8   11 1   
    11    8   16 1   
    12    9   10 2   
    13    9   19 1   
    14   11   12 1   
    15   11   17 1   
    16   11   18 1   
    17   12   13 1   
    18   12   14 1   
    19   19   20 1   
    20   19   24 1   
    21   20   21 1   
    22   20   23 1   
    23   20   25 1   
    24   21   22 2   
    25   21   29 1   
    26   23   26 1   
    27   23   27 1   
    28   23   28 1   
    29   29   30 1   
    30   29   37 1   
    31   30   31 1   
    32   30   33 1   
    33   30   38 1   
    34   31   32 2   
    35   31   41 1   
    36   33   34 1   
    37   33   39 1   
    38   33   40 1   
    39   34   35 1   
    40   34   36 1   
    41   41   42 1   
    42   41   45 1   
    43   42   43 1   
    44   42   46 1   
    45   42   47 1   
    46   43   44 2   
    47   43   48 1   
    48   48   49 1   
    49   48   56 1   
    50   49   50 1   
    51   49   52 1   
    52   49   57 1   
    53   50   51 2   
    54   50   62 1   
    55   52   53 1   
    56   52   58 1   
    57   52   59 1   
    58   53   54 1   
    59   53   55 2   
    60   54   60 1   
    61   54   61 1   
    62   62   63 1   
    63   62   66 1   
    64   63   64 1   
    65   63   67 1   
    66   63   68 1   
    67   64   65 2   
    68   64   69 1   
    69   69   70 1   
    70   69   76 1   
    71   70   71 1   
    72   70   73 1   
    73   70   77 1   
    74   71   72 2   
    75   71   83 1   
    76   73   74 1   
    77   73   75 1   
    78   73   78 1   
    79   74   80 1   
    80   74   81 1   
    81   74   82 1   
    82   75   79 1   
    83   83   84 1   
    84   83   91 1   
    85   84   85 1   
    86   84   87 1   
    87   84   92 1   
    88   85   86 2   
    89   85  102 1   
    90   87   88 1   
    91   87   89 1   
    92   87   93 1   
    93   88   90 1   
    94   88   94 1   
    95   88   95 1   
    96   89   96 1   
    97   89   97 1   
    98   89   98 1   
    99   90   99 1   
   100   90  100 1   
   101   90  101 1   
   102  102  103 1   
   103  102  110 1   
   104  103  104 1   
   105  103  106 1   
   106  103  111 1   
   107  104  105 2   
   108  104  114 1   
   109  106  107 1   
   110  106  112 1   
   111  106  113 1   
   112  107  108 1   
   113  107  109 1   
   114  114  115 1   
   115  114  125 1   
   116  115  116 1   
   117  115  118 1   
   118  115  126 1   
   119  116  117 2   
   120  116  134 1   
   121  118  119 1   
   122  118  127 1   
   123  118  128 1   
   124  119  120 ar  
   125  119  121 ar  
   126  120  122 ar  
   127  120  129 1   
   128  121  123 ar  
   129  121  130 1   
   130  122  124 ar  
   131  122  131 1   
   132  123  124 ar  
   133  123  132 1   
   134  124  133 1   
   135  134  135 1   
   136  134  140 1   
   137  135  136 1   
   138  135  138 1   
   139  135  141 1   
   140  136  137 2   
   141  136  148 1   
   142  138  139 1   
   143  138  142 1   
   144  138  143 1   
   145  139  140 1   
   146  139  144 1   
   147  139  145 1   
   148  140  146 1   
   149  140  147 1   
   150  148  149 1   
   151  148  157 1   
   152  149  150 1   
   153  149  152 1   
   154  149  158 1   
   155  150  151 2   
   156  150  163 1   
   157  152  153 1   
   158  152  159 1   
   159  152  160 1   
   160  153  154 1   
   161  153  161 1   
   162  153  162 1   
   163  154  155 1   
   164  154  156 1   
   165  163  164 1   
   166  163  168 1   
   167  164  165 1   
   168  164  166 1   
   169  164  167 1   
   170  170  171 1   
   171  170  172 1   
   172  173  174 1   
   173  173  175 1   
   174  176  177 1   
   175  176  178 1   
   176  179  180 1   
   177  179  181 1   
@<TRIPOS>SUBSTRUCTURE
     1 MOL         1 TEMP              0 ****  ****    0 ROOT
