@<TRIPOS>MOLECULE
MOL
  186   183     1     0     0
SMALL
resp


@<TRIPOS>ATOM
      1 C1         12.4890    4.5380   -4.1760 c3        1 MOL     -0.439072
      2 C2         12.4930    3.5250   -2.9410 c         1 MOL      0.633287
      3 O1         13.2320    2.5660   -2.9570 o         1 MOL     -0.566049
      4 H1         13.4040    4.4070   -4.7540 hc        1 MOL      0.115906
      5 H2         11.6270    4.3340   -4.8100 hc        1 MOL      0.115906
      6 H3         12.4360    5.5620   -3.8070 hc        1 MOL      0.115906
      7 N1         11.7960    3.9760   -1.8990 n         1 MOL     -0.138947
      8 C3         11.6170    3.3310   -0.6500 c3        1 MOL     -0.377732
      9 C4         10.4620    2.3080   -0.7230 c         1 MOL      0.535514
     10 O2          9.4170    2.6740   -1.2590 o         1 MOL     -0.613164
     11 C5         11.5460    4.3150    0.5610 c3        1 MOL     -0.120807
     12 C6         10.4600    5.4590    0.4660 c         1 MOL      0.788600
     13 O3          9.6370    5.4800   -0.5200 o         1 MOL     -0.739854
     14 O4         10.3070    6.2950    1.4040 o         1 MOL     -0.739854
     15 H4         11.1870    4.7640   -2.0880 hn        1 MOL      0.110450
     16 H5         12.5000    2.7160   -0.4790 h1        1 MOL      0.131211
     17 H6         12.4950    4.8470    0.5720 hc        1 MOL      0.092520
     18 H7         11.4050    3.7640    1.4940 hc        1 MOL      0.092520
     19 N2         10.6130    1.1160   -0.1270 n         1 MOL     -0.190991
     20 C7          9.8680   -0.0650   -0.4660 c3        1 MOL     -0.307847
     21 C8          8.4270   -0.1520    0.0220 c         1 MOL      0.493758
     22 O5          7.6640   -1.1170   -0.2570 o         1 MOL     -0.528763
     23 C9         10.7080   -1.3160   -0.1320 c3        1 MOL     -0.177492
     24 C10        10.1380   -2.6700   -0.6540 c3        1 MOL      0.236190
     25 C11        11.3300   -3.6790   -0.4620 c3        1 MOL     -0.070145
     26 C12        11.0580   -5.1400   -0.9180 c3        1 MOL     -0.186485
     27 N3         11.1830   -5.4120   -2.3490 n4        1 MOL     -0.149749
     28 H8         11.4300    0.9880    0.4520 hn        1 MOL      0.236189
     29 H9          9.7680   -0.0810   -1.5540 h1        1 MOL      0.174638
     30 H10        10.7170   -1.3230    0.9630 hc        1 MOL      0.090360
     31 H11        11.7210   -1.1960   -0.5010 hc        1 MOL      0.090360
     32 H12        10.0950   -2.5230   -1.7310 hc        1 MOL     -0.012178
     33 H13         9.2320   -3.0420   -0.1790 hc        1 MOL     -0.012178
     34 H14        11.4520   -3.8000    0.6150 hc        1 MOL      0.047078
     35 H15        12.2980   -3.3250   -0.8140 hc        1 MOL      0.047078
     36 H16         9.9990   -5.3160   -0.7630 hx        1 MOL      0.152214
     37 H17        11.7720   -5.8760   -0.5260 hx        1 MOL      0.152214
     38 H18        10.7070   -6.2730   -2.5940 hn        1 MOL      0.239370
     39 H19        10.8270   -4.6860   -2.9550 hn        1 MOL      0.239370
     40 H20        12.1330   -5.3970   -2.6880 hn        1 MOL      0.239370
     41 N4          7.9790    0.7840    0.8300 n         1 MOL     -0.032849
     42 C13         6.6310    0.9240    1.4280 c3        1 MOL     -0.524046
     43 C14         5.6720    1.3930    0.3730 c         1 MOL      0.665971
     44 O6          5.9450    2.1290   -0.5570 o         1 MOL     -0.680334
     45 C15         6.7860    1.8860    2.6580 c3        1 MOL     -0.212077
     46 C16         7.4800    3.2900    2.4810 c         1 MOL      0.644625
     47 O7          7.4620    4.1750    3.3450 o         1 MOL     -0.681332
     48 O8          7.8670    3.5580    1.3610 o         1 MOL     -0.681332
     49 H21         8.6510    1.4940    1.0880 hn        1 MOL      0.184157
     50 H22         6.3470   -0.0610    1.8170 h1        1 MOL      0.266243
     51 H23         7.2860    1.3980    3.4930 hc        1 MOL      0.119612
     52 H24         5.7810    2.0970    3.0000 hc        1 MOL      0.119612
     53 N5          4.3990    0.9180    0.3750 n         1 MOL     -0.399364
     54 C17         3.7280    0.0950    1.4510 c3        1 MOL     -0.151641
     55 C18         4.0990   -1.3850    1.3880 c         1 MOL      0.770156
     56 O9          4.8060   -1.8210    0.5260 o         1 MOL     -0.538035
     57 H25         3.8920    1.1790   -0.4580 hn        1 MOL      0.311715
     58 H26         2.6420    0.0760    1.3130 h1        1 MOL      0.093204
     59 H27         3.9080    0.3590    2.4940 h1        1 MOL      0.093204
     60 N6          3.5320   -2.1420    2.3120 n         1 MOL     -0.729684
     61 C19         3.8150   -3.5620    2.5480 c3        1 MOL      0.151356
     62 C20         2.5890   -4.4660    2.2680 c         1 MOL      0.625849
     63 O10         1.5460   -4.2530    2.7490 o         1 MOL     -0.516502
     64 C21         4.2790   -3.7270    4.0200 c3        1 MOL     -0.071790
     65 C22         4.8440   -5.0890    4.4060 c         1 MOL      0.641581
     66 O11         5.6260   -5.6190    3.5540 o         1 MOL     -0.659352
     67 O12         4.4780   -5.7380    5.4290 o         1 MOL     -0.659352
     68 H28         2.8860   -1.7120    2.9570 hn        1 MOL      0.338112
     69 H29         4.6340   -3.9020    1.9140 h1        1 MOL      0.003721
     70 H30         3.4450   -3.4110    4.6360 hc        1 MOL      0.008082
     71 H31         5.1410   -3.0780    4.1850 hc        1 MOL      0.008082
     72 N7          2.9240   -5.5240    1.5430 n         1 MOL     -0.419297
     73 C23         2.0430   -6.7150    1.2580 c3        1 MOL     -0.103148
     74 C24         0.8800   -6.4910    0.1980 c         1 MOL      0.468026
     75 O13         0.3810   -7.4880   -0.3530 o         1 MOL     -0.553294
     76 H32         3.8510   -5.4610    1.1420 hn        1 MOL      0.271916
     77 H33         1.6210   -7.0690    2.1980 h1        1 MOL      0.128544
     78 H34         2.5860   -7.5610    0.8340 h1        1 MOL      0.128544
     79 N8          0.3440   -5.2530   -0.0550 n         1 MOL     -0.173966
     80 C25        -0.7750   -4.9090   -0.9320 c3        1 MOL     -0.157893
     81 C26        -1.2500   -3.4200   -0.6260 c         1 MOL      0.648337
     82 O14        -0.5510   -2.6110   -0.0090 o         1 MOL     -0.477686
     83 C27        -0.3270   -5.0170   -2.4220 c3        1 MOL      0.239716
     84 C28         0.7800   -4.1410   -2.9540 c3        1 MOL     -0.013967
     85 O15         0.0770   -6.3150   -2.8150 oh        1 MOL     -0.616534
     86 H35         0.7380   -4.5370    0.5360 hn        1 MOL      0.089103
     87 H36        -1.5740   -5.6220   -0.7580 h1        1 MOL      0.102165
     88 H37        -1.2240   -4.7620   -2.9730 h1        1 MOL      0.011261
     89 H38        -0.0370   -6.8640   -2.0300 ho        1 MOL      0.397260
     90 H39         1.7670   -4.1770   -2.4920 hc        1 MOL      0.009659
     91 H40         0.9090   -4.2940   -4.0330 hc        1 MOL      0.009659
     92 H41         0.4550   -3.1000   -2.9620 hc        1 MOL      0.009659
     93 N9         -2.3540   -3.0120   -1.1840 n         1 MOL     -0.640597
     94 C29        -2.7470   -1.6210   -0.9590 c3        1 MOL      0.042295
     95 C30        -4.0940   -1.6140   -0.2440 c         1 MOL      0.660512
     96 O16        -4.2780   -0.7880    0.6410 o         1 MOL     -0.538287
     97 C31        -2.8370   -0.8070   -2.2600 c3        1 MOL      0.096353
     98 C32        -1.7150   -1.0390   -3.2860 c3        1 MOL      0.158996
     99 C33        -2.8440    0.6800   -2.0110 c3        1 MOL     -0.327156
    100 C34        -1.9530   -0.4450   -4.6780 c3        1 MOL     -0.352972
    101 H42        -3.0000   -3.5060   -1.7850 hn        1 MOL      0.330292
    102 H43        -2.1100   -1.0990   -0.2500 h1        1 MOL      0.083912
    103 H44        -3.7440   -1.1310   -2.7620 hc        1 MOL      0.011211
    104 H45        -1.6890   -2.1100   -3.4690 hc        1 MOL     -0.012319
    105 H46        -0.7530   -0.7700   -2.8560 hc        1 MOL     -0.012319
    106 H47        -2.9120    1.2910   -2.9150 hc        1 MOL      0.087224
    107 H48        -3.7430    0.8910   -1.4290 hc        1 MOL      0.087224
    108 H49        -2.0030    1.0500   -1.4230 hc        1 MOL      0.087224
    109 H50        -1.7000    0.6160   -4.6700 hc        1 MOL      0.086960
    110 H51        -1.2240   -0.8440   -5.3790 hc        1 MOL      0.086960
    111 H52        -2.9970   -0.5930   -4.9600 hc        1 MOL      0.086960
    112 N10        -5.0820   -2.4340   -0.6810 n         1 MOL     -0.598066
    113 C35        -6.4360   -2.6720   -0.1360 c3        1 MOL     -0.051187
    114 C36        -7.5280   -2.5320   -1.2140 c         1 MOL      0.769125
    115 O17        -7.3840   -3.0320   -2.3510 o         1 MOL     -0.573791
    116 C37        -6.4780   -3.9890    0.6080 c3        1 MOL      0.377724
    117 C38        -5.6440   -4.0520    1.9190 c3        1 MOL     -0.372976
    118 O18        -7.7700   -4.3230    0.9270 oh        1 MOL     -0.630336
    119 H53        -4.8390   -3.0620   -1.4310 hn        1 MOL      0.271504
    120 H54        -6.6980   -1.9450    0.6290 h1        1 MOL      0.107896
    121 H55        -6.0520   -4.7540   -0.0510 h1        1 MOL      0.001569
    122 H56        -7.6830   -4.4030    1.8790 ho        1 MOL      0.381867
    123 H57        -4.6380   -4.2880    1.5890 hc        1 MOL      0.109365
    124 H58        -5.7730   -3.1170    2.4680 hc        1 MOL      0.109365
    125 H59        -5.8600   -4.9120    2.5490 hc        1 MOL      0.109365
    126 N11        -8.5950   -1.8400   -0.8780 n         1 MOL     -0.733522
    127 C39        -9.8360   -1.7530   -1.7420 c3        1 MOL      0.113005
    128 C40       -10.4410   -0.3440   -1.8410 c         1 MOL      0.619836
    129 O19       -10.8910   -0.0010   -2.9200 o         1 MOL     -0.564937
    130 C41       -10.8010   -2.8080   -1.2510 c3        1 MOL      0.288999
    131 C42       -11.8650   -3.2160   -2.2830 c3        1 MOL     -0.348352
    132 O20       -11.3460   -2.5640   -0.0120 oh        1 MOL     -0.628583
    133 H60        -8.7170   -1.5760    0.0910 hn        1 MOL      0.343375
    134 H61        -9.5670   -2.0910   -2.7430 h1        1 MOL      0.090723
    135 H62       -10.1580   -3.6830   -1.1320 h1        1 MOL      0.036550
    136 H63       -11.8600   -3.3430    0.2170 ho        1 MOL      0.408817
    137 H64       -12.1910   -4.2520   -2.1640 hc        1 MOL      0.088689
    138 H65       -12.7230   -2.5690   -2.0720 hc        1 MOL      0.088689
    139 H66       -11.5650   -3.0360   -3.3150 hc        1 MOL      0.088689
    140 N12       -10.4170    0.4510   -0.7400 n         1 MOL     -0.400439
    141 C43       -10.8220    1.8540   -0.7860 c3        1 MOL     -0.018894
    142 C44        -9.9440    2.5880    0.2690 c         1 MOL      0.538515
    143 O21        -9.4890    1.9690    1.2100 o         1 MOL     -0.516043
    144 C45       -12.3500    1.9650   -0.5840 c3        1 MOL     -0.280447
    145 C46       -12.8790    1.4300    0.7590 c3        1 MOL      0.043683
    146 C47       -14.4120    1.4860    0.9130 c3        1 MOL     -0.123920
    147 C48       -14.7780    0.6340    2.2180 c3        1 MOL      0.061186
    148 N13       -16.2070    0.5040    2.3830 n4        1 MOL     -0.228833
    149 H67        -9.9620    0.1080    0.0900 hn        1 MOL      0.259205
    150 H68       -10.5880    2.3900   -1.7070 h1        1 MOL      0.099432
    151 H69       -12.8600    1.5130   -1.4370 hc        1 MOL      0.107594
    152 H70       -12.5220    3.0420   -0.6580 hc        1 MOL      0.107594
    153 H71       -12.4680    2.0090    1.5740 hc        1 MOL      0.044603
    154 H72       -12.5710    0.3860    0.8440 hc        1 MOL      0.044603
    155 H73       -14.9540    1.0600    0.0680 hc        1 MOL      0.059657
    156 H74       -14.7250    2.5350    0.9710 hc        1 MOL      0.059657
    157 H75       -14.3110    1.1020    3.0900 hx        1 MOL      0.071908
    158 H76       -14.2400   -0.3100    2.2330 hx        1 MOL      0.071908
    159 H77       -16.6050    1.4130    2.5660 hn        1 MOL      0.230790
    160 H78       -16.6960    0.1190    1.5880 hn        1 MOL      0.230790
    161 H79       -16.5450   -0.0600    3.1530 hn        1 MOL      0.230790
    162 N14        -9.7570    3.8860    0.0730 n         1 MOL     -0.500650
    163 C49        -8.7420    4.6770    0.8430 c3        1 MOL      0.150271
    164 C50        -7.2780    4.2330    0.5520 c         1 MOL      0.418469
    165 O22        -6.5480    4.1500    1.5130 o         1 MOL     -0.516311
    166 C51        -9.1030    6.1370    0.5980 c3        1 MOL      0.023783
    167 C52        -8.2810    7.0520    1.4450 c3        1 MOL     -0.194301
    168 C53        -8.5850    8.4850    1.0740 c         1 MOL      0.685234
    169 O23        -7.6380    9.1900    0.5880 o         1 MOL     -0.643266
    170 O24        -9.7370    8.9940    1.3120 o         1 MOL     -0.643266
    171 H80       -10.1520    4.3430   -0.7360 hn        1 MOL      0.289575
    172 H81        -8.8160    4.6160    1.9280 h1        1 MOL      0.074995
    173 H82       -10.1380    6.4340    0.7750 hc        1 MOL     -0.000145
    174 H83        -9.0830    6.4380   -0.4410 hc        1 MOL     -0.000145
    175 H84        -7.2290    6.7770    1.4280 hc        1 MOL      0.046892
    176 H85        -8.5630    6.9250    2.4910 hc        1 MOL      0.046892
    177 N15        -6.7870    3.9940   -0.6550 n         1 MOL     -0.326551
    178 C54        -7.3980    4.3830   -1.9880 c3        1 MOL     -0.105827
    179 H86        -6.6050    4.5340   -2.7210 h1        1 MOL      0.075524
    180 H87        -8.0610    3.5890   -2.3300 h1        1 MOL      0.075524
    181 H88        -7.9650    5.3070   -1.8720 h1        1 MOL      0.075524
    182 H89        -5.8390    3.6210   -0.6730 hn        1 MOL      0.277553
    183 Ca1         7.3590    4.4790   -0.9080 Ca        1 MOL      1.724375
    184 O25         7.6900    6.5880    1.5620 oh        1 MOL     -1.138836
    185 H90         7.4930    5.8490    2.1340 ho        1 MOL      0.590556
    186 H91         8.6390    6.5550    1.4530 ho        1 MOL      0.590556
@<TRIPOS>BOND
     1    1    2 1   
     2    1    4 1   
     3    1    5 1   
     4    1    6 1   
     5    2    3 2   
     6    2    7 1   
     7    7    8 1   
     8    7   15 1   
     9    8    9 1   
    10    8   11 1   
    11    8   16 1   
    12    9   10 2   
    13    9   19 1   
    14   11   12 1   
    15   11   17 1   
    16   11   18 1   
    17   12   13 1   
    18   12   14 1   
    19   19   20 1   
    20   19   28 1   
    21   20   21 1   
    22   20   23 1   
    23   20   29 1   
    24   21   22 2   
    25   21   41 1   
    26   23   24 1   
    27   23   30 1   
    28   23   31 1   
    29   24   25 1   
    30   24   32 1   
    31   24   33 1   
    32   25   26 1   
    33   25   34 1   
    34   25   35 1   
    35   26   27 1   
    36   26   36 1   
    37   26   37 1   
    38   27   38 1   
    39   27   39 1   
    40   27   40 1   
    41   41   42 1   
    42   41   49 1   
    43   42   43 1   
    44   42   45 1   
    45   42   50 1   
    46   43   44 2   
    47   43   53 1   
    48   45   46 1   
    49   45   51 1   
    50   45   52 1   
    51   46   47 1   
    52   46   48 1   
    53   53   54 1   
    54   53   57 1   
    55   54   55 1   
    56   54   58 1   
    57   54   59 1   
    58   55   56 2   
    59   55   60 1   
    60   60   61 1   
    61   60   68 1   
    62   61   62 1   
    63   61   64 1   
    64   61   69 1   
    65   62   63 2   
    66   62   72 1   
    67   64   65 1   
    68   64   70 1   
    69   64   71 1   
    70   65   66 1   
    71   65   67 1   
    72   72   73 1   
    73   72   76 1   
    74   73   74 1   
    75   73   77 1   
    76   73   78 1   
    77   74   75 2   
    78   74   79 1   
    79   79   80 1   
    80   79   86 1   
    81   80   81 1   
    82   80   83 1   
    83   80   87 1   
    84   81   82 2   
    85   81   93 1   
    86   83   84 1   
    87   83   85 1   
    88   83   88 1   
    89   84   90 1   
    90   84   91 1   
    91   84   92 1   
    92   85   89 1   
    93   93   94 1   
    94   93  101 1   
    95   94   95 1   
    96   94   97 1   
    97   94  102 1   
    98   95   96 2   
    99   95  112 1   
   100   97   98 1   
   101   97   99 1   
   102   97  103 1   
   103   98  100 1   
   104   98  104 1   
   105   98  105 1   
   106   99  106 1   
   107   99  107 1   
   108   99  108 1   
   109  100  109 1   
   110  100  110 1   
   111  100  111 1   
   112  112  113 1   
   113  112  119 1   
   114  113  114 1   
   115  113  116 1   
   116  113  120 1   
   117  114  115 2   
   118  114  126 1   
   119  116  117 1   
   120  116  118 1   
   121  116  121 1   
   122  117  123 1   
   123  117  124 1   
   124  117  125 1   
   125  118  122 1   
   126  126  127 1   
   127  126  133 1   
   128  127  128 1   
   129  127  130 1   
   130  127  134 1   
   131  128  129 2   
   132  128  140 1   
   133  130  131 1   
   134  130  132 1   
   135  130  135 1   
   136  131  137 1   
   137  131  138 1   
   138  131  139 1   
   139  132  136 1   
   140  140  141 1   
   141  140  149 1   
   142  141  142 1   
   143  141  144 1   
   144  141  150 1   
   145  142  143 2   
   146  142  162 1   
   147  144  145 1   
   148  144  151 1   
   149  144  152 1   
   150  145  146 1   
   151  145  153 1   
   152  145  154 1   
   153  146  147 1   
   154  146  155 1   
   155  146  156 1   
   156  147  148 1   
   157  147  157 1   
   158  147  158 1   
   159  148  159 1   
   160  148  160 1   
   161  148  161 1   
   162  162  163 1   
   163  162  171 1   
   164  163  164 1   
   165  163  166 1   
   166  163  172 1   
   167  164  165 2   
   168  164  177 1   
   169  166  167 1   
   170  166  173 1   
   171  166  174 1   
   172  167  168 1   
   173  167  175 1   
   174  167  176 1   
   175  168  169 1   
   176  168  170 1   
   177  177  178 1   
   178  177  182 1   
   179  178  179 1   
   180  178  180 1   
   181  178  181 1   
   182  184  185 1   
   183  184  186 1   
@<TRIPOS>SUBSTRUCTURE
     1 MOL         1 TEMP              0 ****  ****    0 ROOT
