@<TRIPOS>MOLECULE
MOL
  192   187     1     0     0
SMALL
resp


@<TRIPOS>ATOM
      1 C1          9.0030    1.2600    1.2860 c3        1 MOL     -0.365246
      2 C2          7.9310    0.4090    0.6050 c         1 MOL      0.711351
      3 O1          6.9020    0.0300    1.2140 o         1 MOL     -0.619155
      4 H1          8.8960    2.2980    0.9700 hc        1 MOL      0.093268
      5 H2          8.8860    1.1960    2.3680 hc        1 MOL      0.093268
      6 H3          9.9910    0.8960    1.0040 hc        1 MOL      0.093268
      7 N1          8.1470    0.1250   -0.6810 n         1 MOL     -0.556467
      8 C3          7.2290   -0.5180   -1.7110 c3        1 MOL     -0.097767
      9 C4          6.6140   -1.9430   -1.2550 c         1 MOL      0.470600
     10 O2          6.1170   -2.6660   -2.1620 o         1 MOL     -0.401541
     11 C5          7.8010   -0.5800   -3.0960 c3        1 MOL     -0.375574
     12 C6          8.8820   -1.6430   -3.2890 c         1 MOL      0.759366
     13 O3          9.4720   -2.1670   -2.3280 o         1 MOL     -0.632660
     14 O4          9.2280   -1.9960   -4.4360 o         1 MOL     -0.632660
     15 H4          9.0440    0.3960   -1.0620 hn        1 MOL      0.339027
     16 H5          6.3710    0.1530   -1.8260 h1        1 MOL      0.192132
     17 H6          8.2110    0.3960   -3.3460 hc        1 MOL      0.124764
     18 H7          6.9140   -0.7540   -3.7170 hc        1 MOL      0.124764
     19 N2          6.6530   -2.3180    0.0370 n         1 MOL     -0.292482
     20 C7          6.0440   -3.5500    0.5570 c3        1 MOL     -0.015921
     21 C8          4.5580   -3.7870    0.1680 c         1 MOL      0.400880
     22 O5          4.3330   -4.8690   -0.3900 o         1 MOL     -0.518607
     23 C9          6.2000   -3.5860    2.0630 c3        1 MOL      0.031245
     24 C10         7.6530   -3.5720    2.5390 c3        1 MOL     -0.080510
     25 C11         7.6230   -3.7100    4.0460 c3        1 MOL     -0.036658
     26 C12         8.9890   -3.7510    4.5610 c3        1 MOL      0.127953
     27 N3          9.1560   -3.4150    5.9900 n4        1 MOL     -0.405746
     28 H8          7.0660   -1.6450    0.6650 hn        1 MOL      0.179597
     29 H9          6.6090   -4.3400    0.0570 h1        1 MOL      0.118452
     30 H10         5.5680   -4.3850    2.4650 hc        1 MOL      0.023649
     31 H11         5.8240   -2.6650    2.5110 hc        1 MOL      0.023649
     32 H12         7.9750   -2.5690    2.2530 hc        1 MOL      0.040321
     33 H13         8.2230   -4.3830    2.0940 hc        1 MOL      0.040321
     34 H14         7.0770   -4.6240    4.2980 hc        1 MOL      0.031439
     35 H15         7.0340   -2.8800    4.4430 hc        1 MOL      0.031439
     36 H16         9.6700   -3.1760    3.9250 hx        1 MOL      0.065753
     37 H17         9.3800   -4.7460    4.3160 hx        1 MOL      0.065753
     38 H18         8.6990   -2.5240    6.1270 hn        1 MOL      0.288827
     39 H19         8.6770   -4.0880    6.5690 hn        1 MOL      0.288827
     40 H20        10.1000   -3.1690    6.2240 hn        1 MOL      0.288827
     41 N4          3.6190   -2.8350    0.1590 n         1 MOL     -0.367640
     42 C13         3.7830   -1.5430    0.8960 c3        1 MOL     -0.082244
     43 C14         3.7330   -0.3620   -0.0630 c         1 MOL      0.071090
     44 O6          3.4350   -0.4430   -1.2790 o         1 MOL     -0.389746
     45 C15         2.7540   -1.4830    1.9700 c3        1 MOL      0.011620
     46 C16         1.3080   -1.6660    1.5080 c         1 MOL      0.666552
     47 O7          1.0250   -1.2000    0.3910 o         1 MOL     -0.700168
     48 O8          0.4230   -2.1300    2.2610 o         1 MOL     -0.700168
     49 H21         2.7710   -3.0900   -0.3170 hn        1 MOL      0.372828
     50 H22         4.7070   -1.4790    1.4730 h1        1 MOL      0.164121
     51 H23         2.8500   -0.5700    2.5610 hc        1 MOL     -0.000998
     52 H24         3.1110   -2.1990    2.7120 hc        1 MOL     -0.000998
     53 N5          4.1650    0.7890    0.4460 n         1 MOL     -0.027184
     54 C17         4.2950    2.0850   -0.1400 c3        1 MOL     -0.304451
     55 C18         2.9010    2.6060   -0.7700 c         1 MOL      0.466087
     56 O9          1.8600    1.9260   -0.6710 o         1 MOL     -0.444451
     57 H25         4.6360    0.7070    1.3350 hn        1 MOL      0.195195
     58 H26         5.0050    1.9650   -0.9610 h1        1 MOL      0.124047
     59 H27         4.6650    2.7800    0.6060 h1        1 MOL      0.124047
     60 N6          3.0020    3.7610   -1.3670 n         1 MOL     -0.330312
     61 C19         2.0360    4.5020   -2.1350 c3        1 MOL      0.146458
     62 C20         2.3610    6.0120   -2.0500 c         1 MOL      0.544338
     63 O10         3.4380    6.4190   -1.6840 o         1 MOL     -0.522259
     64 C21         1.8340    3.9540   -3.5620 c3        1 MOL     -0.128192
     65 C22         1.4170    2.4400   -3.5680 c         1 MOL      0.636927
     66 O11         1.9720    1.5450   -4.2660 o         1 MOL     -0.663648
     67 O12         0.3490    2.1060   -2.9820 o         1 MOL     -0.663648
     68 H28         3.9460    4.0970   -1.4910 hn        1 MOL      0.252101
     69 H29         1.0450    4.5740   -1.6720 h1        1 MOL      0.005420
     70 H30         2.7600    3.9640   -4.1350 hc        1 MOL      0.026401
     71 H31         1.0600    4.4420   -4.1680 hc        1 MOL      0.026401
     72 N7          1.4320    6.9200   -2.4820 n         1 MOL     -0.588832
     73 C23        -0.0040    6.7710   -2.8990 c3        1 MOL     -0.014564
     74 C24        -0.7770    6.2020   -1.5790 c         1 MOL      0.487520
     75 O13        -0.2960    6.3030   -0.4610 o         1 MOL     -0.410052
     76 H32         1.8130    7.8250   -2.7340 hn        1 MOL      0.353480
     77 H33        -0.3180    6.2700   -3.8080 h1        1 MOL      0.085680
     78 H34        -0.5220    7.6920   -3.1510 h1        1 MOL      0.085680
     79 N8         -1.9330    5.5230   -1.7790 n         1 MOL     -0.516411
     80 C25        -2.5800    4.8160   -0.6610 c3        1 MOL     -0.058029
     81 C26        -1.6770    3.7600    0.1210 c         1 MOL     -0.028717
     82 O14        -1.1480    2.8100   -0.4530 o         1 MOL     -0.302348
     83 C27        -3.8470    4.1500   -1.2650 c3        1 MOL      0.244291
     84 C28        -4.7130    3.6030   -0.1440 c3        1 MOL     -0.061536
     85 O15        -3.5390    3.0410   -2.0640 oh        1 MOL     -0.553244
     86 H35        -2.2320    5.3960   -2.7360 hn        1 MOL      0.311898
     87 H36        -2.8900    5.5990    0.0300 h1        1 MOL      0.133738
     88 H37        -4.4520    4.9130   -1.7620 h1        1 MOL      0.028861
     89 H38        -2.8930    3.2470   -2.7470 ho        1 MOL      0.383990
     90 H39        -4.1520    2.8920    0.4690 hc        1 MOL      0.027976
     91 H40        -5.1990    4.4190    0.3890 hc        1 MOL      0.027976
     92 H41        -5.5560    3.0170   -0.4950 hc        1 MOL      0.027976
     93 N9         -1.5680    3.9680    1.4440 n         1 MOL     -0.170280
     94 C29        -0.7040    3.1270    2.3130 c3        1 MOL     -0.020971
     95 C30        -1.0480    1.6430    2.2030 c         1 MOL      0.591827
     96 O16        -0.4830    0.8990    1.4450 o         1 MOL     -0.520326
     97 C31         0.7610    3.4440    2.2540 c3        1 MOL      0.018474
     98 C32         0.9790    4.8850    2.8460 c3        1 MOL     -0.118053
     99 C33         1.6230    2.3610    2.9250 c3        1 MOL     -0.356798
    100 C34         2.0570    5.6790    2.1290 c3        1 MOL     -0.093977
    101 H42        -2.1570    4.6850    1.8390 hn        1 MOL      0.256073
    102 H43        -1.0990    3.4540    3.2760 h1        1 MOL      0.021124
    103 H44         1.0340    3.4950    1.2050 hc        1 MOL      0.227490
    104 H45         1.4640    4.7250    3.8060 hc        1 MOL      0.037413
    105 H46         0.0770    5.4800    2.9440 hc        1 MOL      0.037413
    106 H47         1.5990    1.4310    2.3430 hc        1 MOL      0.097734
    107 H48         2.6680    2.6780    2.9650 hc        1 MOL      0.097734
    108 H49         1.3550    2.2740    3.9820 hc        1 MOL      0.097734
    109 H50         2.1330    6.6770    2.5480 hc        1 MOL      0.023780
    110 H51         2.9970    5.1560    1.9480 hc        1 MOL      0.023780
    111 H52         1.6810    5.7780    1.1060 hc        1 MOL      0.023780
    112 N10        -2.0860    1.2840    2.9680 n         1 MOL     -0.390616
    113 C35        -2.6850   -0.0400    3.1780 c3        1 MOL     -0.007132
    114 C36        -4.1900   -0.1910    3.1470 c         1 MOL      0.406345
    115 O17        -4.6740   -1.2070    3.6360 o         1 MOL     -0.528051
    116 C37        -2.0650   -0.8230    4.3820 c3        1 MOL      0.469666
    117 C38        -2.3480   -0.1170    5.6830 c3        1 MOL     -0.232225
    118 O18        -0.6320   -0.8260    4.2440 oh        1 MOL     -0.672922
    119 H53        -2.5010    2.0810    3.4290 hn        1 MOL      0.242068
    120 H54        -2.3520   -0.5870    2.2930 h1        1 MOL      0.008244
    121 H55        -2.3570   -1.8750    4.4360 h1        1 MOL     -0.002360
    122 H56        -0.4150   -1.4030    3.5100 ho        1 MOL      0.401749
    123 H57        -3.3110   -0.5140    6.0310 hc        1 MOL      0.042045
    124 H58        -1.6200   -0.4250    6.4260 hc        1 MOL      0.042045
    125 H59        -2.4000    0.9770    5.6200 hc        1 MOL      0.042045
    126 N11        -4.8550    0.7610    2.4550 n         1 MOL     -0.083315
    127 C39        -6.3360    0.6070    2.2580 c3        1 MOL     -0.044046
    128 C40        -6.7000   -0.1410    0.9860 c         1 MOL      0.615196
    129 O19        -6.9150    0.3900   -0.0970 o         1 MOL     -0.518236
    130 C41        -7.1420    1.9450    2.5470 c3        1 MOL      0.270681
    131 C42        -7.7140    2.0660    4.0250 c3        1 MOL     -0.193704
    132 O20        -6.2940    3.0400    2.3710 oh        1 MOL     -0.634856
    133 H60        -4.4180    1.5230    1.9650 hn        1 MOL      0.150258
    134 H61        -6.6810   -0.0490    3.0610 h1        1 MOL      0.043606
    135 H62        -7.9430    2.0610    1.8220 h1        1 MOL     -0.013764
    136 H63        -6.9340    3.7360    2.1690 ho        1 MOL      0.426341
    137 H64        -8.4730    1.3150    4.2460 hc        1 MOL      0.047738
    138 H65        -6.7820    1.8860    4.5710 hc        1 MOL      0.047738
    139 H66        -8.0980    3.0640    4.2350 hc        1 MOL      0.047738
    140 N12        -6.6840   -1.4530    1.0790 n         1 MOL     -0.618297
    141 C43        -6.5890   -2.4410   -0.0510 c3        1 MOL      0.283480
    142 C44        -5.2120   -2.3790   -0.7100 c         1 MOL      0.383100
    143 O21        -4.6710   -1.3030   -0.9060 o         1 MOL     -0.446519
    144 C45        -7.7800   -2.3880   -1.1020 c3        1 MOL     -0.325432
    145 C46        -9.1310   -2.5310   -0.4020 c3        1 MOL      0.150542
    146 C47       -10.2820   -2.2080   -1.3330 c3        1 MOL     -0.036314
    147 C48       -11.7070   -2.3890   -0.8420 c3        1 MOL     -0.036863
    148 N13       -12.1360   -3.7550   -0.5260 n4        1 MOL     -0.293030
    149 H67        -6.4950   -1.8640    1.9830 hn        1 MOL      0.310407
    150 H68        -6.6440   -3.4660    0.3380 h1        1 MOL     -0.007715
    151 H69        -7.5540   -3.1610   -1.8340 hc        1 MOL      0.104731
    152 H70        -7.7370   -1.4370   -1.6390 hc        1 MOL      0.104731
    153 H71        -9.1140   -1.8280    0.4350 hc        1 MOL     -0.023506
    154 H72        -9.2700   -3.5470   -0.0530 hc        1 MOL     -0.023506
    155 H73       -10.1110   -2.8460   -2.1920 hc        1 MOL      0.054027
    156 H74       -10.1010   -1.1610   -1.5840 hc        1 MOL      0.054027
    157 H75       -12.2590   -1.9170   -1.6590 hx        1 MOL      0.094947
    158 H76       -11.8890   -1.7180   -0.0060 hx        1 MOL      0.094947
    159 H77       -11.9940   -4.4270   -1.2720 hn        1 MOL      0.236698
    160 H78       -11.6020   -4.1730    0.2140 hn        1 MOL      0.236698
    161 H79       -13.1160   -3.6720   -0.2850 hn        1 MOL      0.236698
    162 N14        -4.6200   -3.4750   -1.0920 n         1 MOL     -0.353563
    163 C49        -3.3110   -3.4800   -1.7850 c3        1 MOL      0.035388
    164 C50        -2.1580   -2.9410   -0.9050 c         1 MOL      0.459000
    165 O22        -1.4430   -2.0350   -1.3070 o         1 MOL     -0.624929
    166 C51        -2.9100   -4.8860   -2.3300 c3        1 MOL      0.095198
    167 C52        -3.6620   -5.2500   -3.5980 c3        1 MOL     -0.275356
    168 C53        -3.3410   -6.7110   -3.9800 c         1 MOL      0.687124
    169 O23        -4.1360   -7.6020   -3.6970 o         1 MOL     -0.631597
    170 O24        -2.2080   -7.0040   -4.3710 o         1 MOL     -0.631597
    171 H80        -5.1120   -4.3490   -1.0150 hn        1 MOL      0.268195
    172 H81        -3.4660   -2.8060   -2.6220 h1        1 MOL      0.103338
    173 H82        -3.0620   -5.5730   -1.4890 hc        1 MOL      0.047356
    174 H83        -1.8340   -4.8720   -2.5430 hc        1 MOL      0.047356
    175 H84        -3.4860   -4.5520   -4.4120 hc        1 MOL      0.026992
    176 H85        -4.7260   -5.1500   -3.3740 hc        1 MOL      0.026992
    177 N15        -2.0580   -3.2450    0.3350 n         1 MOL     -0.242568
    178 C54        -2.5230   -4.4710    0.9320 c3        1 MOL     -0.028563
    179 H86        -2.9130   -5.1280    0.1550 h1        1 MOL      0.024725
    180 H87        -1.6950   -4.9650    1.4410 h1        1 MOL      0.024725
    181 H88        -3.3120   -4.2490    1.6510 h1        1 MOL      0.024725
    182 H89        -1.3110   -2.7790    0.8270 hn        1 MOL      0.323760
    183 Ca1        -0.2230    0.4150   -1.0750 Ca        1 MOL      1.759109
    184 O25         1.3120   -0.8240   -2.7960 oh        1 MOL     -0.879745
    185 H90         1.4910   -0.3590   -3.6100 ho        1 MOL      0.415458
    186 H91         2.1500   -0.8530   -2.3470 ho        1 MOL      0.415458
    187 O26        -3.0660    0.7800   -0.3840 oh        1 MOL     -0.879745
    188 H92        -3.6020   -0.0130   -0.3360 ho        1 MOL      0.415458
    189 H93        -3.4200    1.2630   -1.1260 ho        1 MOL      0.415458
    190 O27        -1.9130    0.5870   -3.3430 oh        1 MOL     -0.879745
    191 H94        -2.1060   -0.1870   -3.8820 ho        1 MOL      0.415458
    192 H95        -1.6730    1.2550   -3.9780 ho        1 MOL      0.415458
@<TRIPOS>BOND
     1    1    2 1   
     2    1    4 1   
     3    1    5 1   
     4    1    6 1   
     5    2    3 2   
     6    2    7 1   
     7    7    8 1   
     8    7   15 1   
     9    8    9 1   
    10    8   11 1   
    11    8   16 1   
    12    9   10 2   
    13    9   19 1   
    14   11   12 1   
    15   11   17 1   
    16   11   18 1   
    17   12   13 1   
    18   12   14 1   
    19   19   20 1   
    20   19   28 1   
    21   20   21 1   
    22   20   23 1   
    23   20   29 1   
    24   21   22 2   
    25   21   41 1   
    26   23   24 1   
    27   23   30 1   
    28   23   31 1   
    29   24   25 1   
    30   24   32 1   
    31   24   33 1   
    32   25   26 1   
    33   25   34 1   
    34   25   35 1   
    35   26   27 1   
    36   26   36 1   
    37   26   37 1   
    38   27   38 1   
    39   27   39 1   
    40   27   40 1   
    41   41   42 1   
    42   41   49 1   
    43   42   43 1   
    44   42   45 1   
    45   42   50 1   
    46   43   44 2   
    47   43   53 1   
    48   45   46 1   
    49   45   51 1   
    50   45   52 1   
    51   46   47 1   
    52   46   48 1   
    53   53   54 1   
    54   53   57 1   
    55   54   55 1   
    56   54   58 1   
    57   54   59 1   
    58   55   56 2   
    59   55   60 1   
    60   60   61 1   
    61   60   68 1   
    62   61   62 1   
    63   61   64 1   
    64   61   69 1   
    65   62   63 2   
    66   62   72 1   
    67   64   65 1   
    68   64   70 1   
    69   64   71 1   
    70   65   66 1   
    71   65   67 1   
    72   72   73 1   
    73   72   76 1   
    74   73   74 1   
    75   73   77 1   
    76   73   78 1   
    77   74   75 2   
    78   74   79 1   
    79   79   80 1   
    80   79   86 1   
    81   80   81 1   
    82   80   83 1   
    83   80   87 1   
    84   81   82 2   
    85   81   93 1   
    86   83   84 1   
    87   83   85 1   
    88   83   88 1   
    89   84   90 1   
    90   84   91 1   
    91   84   92 1   
    92   85   89 1   
    93   93   94 1   
    94   93  101 1   
    95   94   95 1   
    96   94   97 1   
    97   94  102 1   
    98   95   96 2   
    99   95  112 1   
   100   97   98 1   
   101   97   99 1   
   102   97  103 1   
   103   98  100 1   
   104   98  104 1   
   105   98  105 1   
   106   99  106 1   
   107   99  107 1   
   108   99  108 1   
   109  100  109 1   
   110  100  110 1   
   111  100  111 1   
   112  112  113 1   
   113  112  119 1   
   114  113  114 1   
   115  113  116 1   
   116  113  120 1   
   117  114  115 2   
   118  114  126 1   
   119  116  117 1   
   120  116  118 1   
   121  116  121 1   
   122  117  123 1   
   123  117  124 1   
   124  117  125 1   
   125  118  122 1   
   126  126  127 1   
   127  126  133 1   
   128  127  128 1   
   129  127  130 1   
   130  127  134 1   
   131  128  129 2   
   132  128  140 1   
   133  130  131 1   
   134  130  132 1   
   135  130  135 1   
   136  131  137 1   
   137  131  138 1   
   138  131  139 1   
   139  132  136 1   
   140  140  141 1   
   141  140  149 1   
   142  141  142 1   
   143  141  144 1   
   144  141  150 1   
   145  142  143 2   
   146  142  162 1   
   147  144  145 1   
   148  144  151 1   
   149  144  152 1   
   150  145  146 1   
   151  145  153 1   
   152  145  154 1   
   153  146  147 1   
   154  146  155 1   
   155  146  156 1   
   156  147  148 1   
   157  147  157 1   
   158  147  158 1   
   159  148  159 1   
   160  148  160 1   
   161  148  161 1   
   162  162  163 1   
   163  162  171 1   
   164  163  164 1   
   165  163  166 1   
   166  163  172 1   
   167  164  165 2   
   168  164  177 1   
   169  166  167 1   
   170  166  173 1   
   171  166  174 1   
   172  167  168 1   
   173  167  175 1   
   174  167  176 1   
   175  168  169 1   
   176  168  170 1   
   177  177  178 1   
   178  177  182 1   
   179  178  179 1   
   180  178  180 1   
   181  178  181 1   
   182  184  185 1   
   183  184  186 1   
   184  187  188 1   
   185  187  189 1   
   186  190  191 1   
   187  190  192 1   
@<TRIPOS>SUBSTRUCTURE
     1 MOL         1 TEMP              0 ****  ****    0 ROOT
