@<TRIPOS>MOLECULE
MOL
  178   175     1     0     0
SMALL
resp


@<TRIPOS>ATOM
      1 C1         -5.9100    7.7350    1.8160 c3        1 MOL     -0.473388
      2 C2         -6.7470    6.9680    0.7350 c         1 MOL      0.709399
      3 O1         -6.4750    7.0560   -0.4540 o         1 MOL     -0.585075
      4 H1         -6.3150    8.7380    1.9440 hc        1 MOL      0.118986
      5 H2         -5.9620    7.1990    2.7640 hc        1 MOL      0.118986
      6 H3         -4.8710    7.8010    1.4920 hc        1 MOL      0.118986
      7 N1         -7.7360    6.1770    1.1310 n         1 MOL     -0.586680
      8 C3         -8.5200    5.3580    0.2220 c3        1 MOL      0.358320
      9 C4         -7.8410    3.9740   -0.1150 c         1 MOL      0.432049
     10 O2         -8.4670    2.9000   -0.1600 o         1 MOL     -0.430879
     11 C5         -9.9170    5.2240    0.8910 c3        1 MOL     -0.306192
     12 C6        -10.9440    4.6610   -0.0830 c         1 MOL      0.623827
     13 O3        -11.7860    3.7670    0.2560 o         1 MOL     -0.701424
     14 O4        -10.7520    4.9310   -1.3230 o         1 MOL     -0.701424
     15 H4         -7.8090    5.9870    2.1150 hn        1 MOL      0.286586
     16 H5         -8.6410    6.0010   -0.6490 h1        1 MOL      0.022809
     17 H6        -10.2730    6.2200    1.1410 hc        1 MOL      0.041779
     18 H7         -9.9760    4.6540    1.8190 hc        1 MOL      0.041779
     19 N2         -6.5310    4.1060   -0.4740 n         1 MOL     -0.642117
     20 C7         -5.5490    3.1480   -1.0220 c3        1 MOL      0.425901
     21 C8         -4.7220    2.3650    0.0290 c         1 MOL      0.440052
     22 O5         -3.8820    2.9460    0.7310 o         1 MOL     -0.551297
     23 C9         -4.6210    3.9170   -1.9510 c3        1 MOL     -0.315100
     24 H8         -6.2910    5.0920   -0.5430 hn        1 MOL      0.301296
     25 H9         -6.0550    2.4280   -1.6500 h1        1 MOL      0.048021
     26 H10        -3.8950    3.1720   -2.2810 hc        1 MOL      0.074181
     27 H11        -5.2310    4.3620   -2.7490 hc        1 MOL      0.074181
     28 H12        -4.0540    4.6560   -1.3890 hc        1 MOL      0.074181
     29 N3         -4.8150    1.0470    0.0250 n         1 MOL     -0.319375
     30 C10        -5.7840    0.1790   -0.7200 c3        1 MOL     -0.009454
     31 C11        -6.0080   -1.1730   -0.1320 c         1 MOL      0.513282
     32 O6         -5.2410   -1.5520    0.7380 o         1 MOL     -0.497796
     33 C12        -5.2310    0.0230   -2.2010 c3        1 MOL     -0.095431
     34 C13        -3.7700   -0.3810   -2.3830 c         1 MOL      0.690380
     35 O7         -3.2710   -0.3190   -3.5080 o         1 MOL     -0.719396
     36 O8         -2.9590   -0.6820   -1.4860 o         1 MOL     -0.719396
     37 H13        -4.0820    0.5320    0.4980 hn        1 MOL      0.189781
     38 H14        -6.7630    0.6450   -0.7930 h1        1 MOL      0.011662
     39 H15        -5.3770    0.9150   -2.8110 hc        1 MOL      0.022132
     40 H16        -5.8360   -0.7150   -2.7490 hc        1 MOL      0.022132
     41 N4         -7.0170   -1.9530   -0.5610 n         1 MOL     -0.433292
     42 C14        -7.1740   -3.3160   -0.0510 c3        1 MOL      0.089620
     43 C15        -6.9280   -4.3290   -1.1360 c         1 MOL      0.483566
     44 O9         -7.9320   -4.8180   -1.6790 o         1 MOL     -0.573312
     45 H17        -7.7170   -1.5480   -1.1660 hn        1 MOL      0.329910
     46 H18        -8.1880   -3.4050    0.3270 h1        1 MOL      0.039470
     47 H19        -6.4840   -3.5230    0.7760 h1        1 MOL      0.039470
     48 N5         -5.7620   -4.6820   -1.6230 n         1 MOL     -0.419613
     49 C16        -4.4770   -4.2800   -1.1230 c3        1 MOL      0.030704
     50 C17        -4.1980   -4.9340    0.2860 c         1 MOL      0.615821
     51 O10        -4.3820   -6.0720    0.4260 o         1 MOL     -0.581701
     52 C18        -3.4730   -4.6220   -2.1890 c3        1 MOL     -0.235133
     53 C19        -2.0860   -4.1500   -1.8760 c         1 MOL      0.545605
     54 N6         -1.2680   -4.1380   -2.8860 n         1 MOL     -0.772530
     55 O11        -1.7970   -3.4690   -0.9120 o         1 MOL     -0.317295
     56 H20        -5.7230   -5.2430   -2.4610 hn        1 MOL      0.298569
     57 H21        -4.3600   -3.2040   -0.9840 h1        1 MOL      0.038952
     58 H22        -3.8000   -4.1630   -3.1140 hc        1 MOL      0.086341
     59 H23        -3.3770   -5.7030   -2.3020 hc        1 MOL      0.086341
     60 H24        -1.3820   -4.6750   -3.7310 hn        1 MOL      0.352544
     61 H25        -0.3010   -3.9150   -2.6560 hn        1 MOL      0.352544
     62 N7         -3.8980   -4.1030    1.2700 n         1 MOL     -0.053269
     63 C20        -3.6000   -4.5370    2.6010 c3        1 MOL     -0.342694
     64 C21        -2.1100   -4.8960    2.8050 c         1 MOL      0.631818
     65 O12        -1.8400   -5.5250    3.7910 o         1 MOL     -0.572876
     66 H26        -3.9930   -3.1280    1.0490 hn        1 MOL      0.130762
     67 H27        -4.3130   -5.3220    2.8510 h1        1 MOL      0.117684
     68 H28        -3.8090   -3.6590    3.2220 h1        1 MOL      0.117684
     69 N8         -1.2150   -4.5670    1.8690 n         1 MOL     -0.261004
     70 C22         0.2610   -4.6670    2.1370 c3        1 MOL     -0.032406
     71 C23         1.1170   -3.4230    1.7900 c         1 MOL      0.206784
     72 O13         0.7910   -2.7430    0.8260 o         1 MOL     -0.348577
     73 C24         0.9450   -5.8350    1.3760 c3        1 MOL      0.516260
     74 C25         0.5030   -7.2600    1.8410 c3        1 MOL     -0.469425
     75 O14         0.6020   -5.7010    0.0540 oh        1 MOL     -0.583793
     76 H29        -1.5430   -4.2980    0.9510 hn        1 MOL      0.037629
     77 H30         0.3990   -4.8530    3.2020 h1        1 MOL      0.032221
     78 H31         2.0100   -5.7940    1.5650 h1        1 MOL     -0.057943
     79 H32         1.1410   -4.9990   -0.3140 ho        1 MOL      0.363397
     80 H33         0.7240   -7.2290    2.9130 hc        1 MOL      0.111774
     81 H34        -0.5740   -7.4120    1.7390 hc        1 MOL      0.111774
     82 H35         1.0210   -8.0470    1.3000 hc        1 MOL      0.111774
     83 N9          2.2140   -3.2490    2.5150 n         1 MOL     -0.043700
     84 C26         3.1930   -2.2300    2.2780 c3        1 MOL     -0.038525
     85 C27         4.1120   -2.5890    1.0720 c         1 MOL      0.251349
     86 O15         5.0070   -3.4030    1.2540 o         1 MOL     -0.537352
     87 C28         3.9080   -1.8740    3.5980 c3        1 MOL     -0.050533
     88 C29         5.0470   -0.9380    3.3100 c3        1 MOL      0.318150
     89 C30         2.8930   -1.3310    4.6520 c3        1 MOL     -0.272613
     90 C31         6.0900   -0.7680    4.4610 c3        1 MOL     -0.161665
     91 H36         2.5300   -3.9360    3.1940 hn        1 MOL      0.198087
     92 H37         2.5980   -1.3520    2.0390 h1        1 MOL      0.035845
     93 H38         4.3510   -2.7800    4.0320 hc        1 MOL      0.042226
     94 H39         4.7560    0.0920    3.1310 hc        1 MOL     -0.070959
     95 H40         5.5600   -1.2900    2.4160 hc        1 MOL     -0.070959
     96 H41         3.3320   -1.1640    5.6440 hc        1 MOL      0.069590
     97 H42         2.4740   -0.3770    4.3370 hc        1 MOL      0.069590
     98 H43         2.0480   -2.0120    4.7710 hc        1 MOL      0.069590
     99 H44         5.6460   -0.3580    5.3620 hc        1 MOL      0.020380
    100 H45         6.6140   -1.6460    4.8230 hc        1 MOL      0.020380
    101 H46         6.7860   -0.0790    3.9700 hc        1 MOL      0.020380
    102 N10         3.9010   -2.1390   -0.1420 n         1 MOL      0.077287
    103 C32         4.5680   -2.6210   -1.3310 c3        1 MOL      0.098715
    104 C33         5.6850   -1.6330   -1.7380 c         1 MOL      0.561926
    105 O16         6.2560   -1.7040   -2.8610 o         1 MOL     -0.552149
    106 C34         3.5430   -2.8020   -2.4890 c3        1 MOL     -0.336511
    107 C35         2.2620   -3.6750   -2.1250 c         1 MOL      0.752194
    108 O17         2.2850   -4.9270   -1.9680 o         1 MOL     -0.678033
    109 O18         1.1360   -3.1160   -2.1400 o         1 MOL     -0.678033
    110 H47         2.9990   -1.7240   -0.3190 hn        1 MOL     -0.032711
    111 H48         5.0970   -3.5470   -1.1220 h1        1 MOL      0.066922
    112 H49         4.0520   -3.3140   -3.2990 hc        1 MOL      0.080820
    113 H50         3.1580   -1.8660   -2.9130 hc        1 MOL      0.080820
    114 N11         6.0730   -0.7140   -0.8070 n         1 MOL     -0.554780
    115 C36         6.9570    0.3590   -1.1570 c3        1 MOL      0.379233
    116 C37         6.5350    1.6210   -0.3850 c         1 MOL      0.429604
    117 O19         6.3570    1.5210    0.8010 o         1 MOL     -0.472244
    118 C38         8.4480    0.0100   -1.0070 c3        1 MOL     -0.265816
    119 C39         9.4460    1.0520   -1.5070 ca        1 MOL      0.114090
    120 C40        10.0410    1.8760   -0.5910 ca        1 MOL     -0.155480
    121 C41         9.6910    1.1830   -2.9420 ca        1 MOL     -0.155480
    122 C42        10.8630    2.9720   -1.0780 ca        1 MOL     -0.113248
    123 C43        10.4330    2.2510   -3.4420 ca        1 MOL     -0.113248
    124 C44        11.0490    3.1450   -2.5320 ca        1 MOL     -0.155663
    125 H51         5.5220   -0.5400    0.0220 hn        1 MOL      0.231052
    126 H52         6.7810    0.5560   -2.2080 h1        1 MOL     -0.031829
    127 H53         8.5720   -0.9680   -1.4800 hc        1 MOL      0.098318
    128 H54         8.6110   -0.1170    0.0620 hc        1 MOL      0.098318
    129 H55         9.9200    1.6960    0.4650 ha        1 MOL      0.128700
    130 H56         9.2000    0.5340   -3.6480 ha        1 MOL      0.128700
    131 H57        11.3080    3.6730   -0.3860 ha        1 MOL      0.114715
    132 H58        10.6150    2.3300   -4.5020 ha        1 MOL      0.114715
    133 H59        11.5340    4.0380   -2.9080 ha        1 MOL      0.116791
    134 N12         6.3860    2.8420   -1.0190 n         1 MOL     -0.178421
    135 C45         6.5830    4.0900   -0.3610 c3        1 MOL     -0.097611
    136 C46         5.3810    4.5400    0.4830 c         1 MOL      0.444551
    137 O20         5.3850    5.6030    1.0910 o         1 MOL     -0.563899
    138 C47         6.8500    5.2080   -1.5050 c3        1 MOL     -0.012882
    139 C48         6.2920    4.5160   -2.7310 c3        1 MOL      0.029595
    140 C49         6.5860    3.0350   -2.4350 c3        1 MOL     -0.220943
    141 H60         7.4380    3.9910    0.3000 h1        1 MOL      0.078504
    142 H61         6.3800    6.1780   -1.3300 hc        1 MOL      0.046011
    143 H62         7.9250    5.3920   -1.5830 hc        1 MOL      0.046011
    144 H63         5.2140    4.5510   -2.6160 hc        1 MOL      0.015223
    145 H64         6.7030    4.8080   -3.7010 hc        1 MOL      0.015223
    146 H65         5.8670    2.4490   -3.0120 h1        1 MOL      0.114978
    147 H66         7.5410    2.7360   -2.8630 h1        1 MOL      0.114978
    148 N13         4.3110    3.7950    0.5470 n         1 MOL     -0.072549
    149 C50         3.0390    4.0580    1.2420 c3        1 MOL     -0.343523
    150 C51         3.1580    4.1970    2.7490 c         1 MOL      0.571145
    151 O21         2.3460    4.7990    3.4280 o         1 MOL     -0.545950
    152 C52         1.9860    3.0280    0.9090 c3        1 MOL      0.181781
    153 C53         2.2570    1.6440    1.4510 c3        1 MOL     -0.398536
    154 C54         1.3460    0.6350    0.7550 c         1 MOL      0.843306
    155 O22         1.8040    0.0560   -0.2720 o         1 MOL     -0.730877
    156 O23         0.2160    0.3570    1.2040 o         1 MOL     -0.730877
    157 H67         4.4050    2.8470    0.1920 hn        1 MOL      0.148909
    158 H68         2.6310    4.9640    0.8160 h1        1 MOL      0.151770
    159 H69         2.0280    2.8700   -0.1680 hc        1 MOL      0.010568
    160 H70         1.0090    3.4910    1.0700 hc        1 MOL      0.010568
    161 H71         1.9190    1.6800    2.4860 hc        1 MOL      0.092520
    162 H72         3.3150    1.3590    1.4120 hc        1 MOL      0.092520
    163 N14         4.2260    3.6340    3.2660 n         1 MOL     -0.159846
    164 C55         4.6210    3.8480    4.6500 c3        1 MOL     -0.235259
    165 H73         4.4760    4.8970    4.9110 h1        1 MOL      0.094413
    166 H74         4.0100    3.2240    5.3030 h1        1 MOL      0.094413
    167 H75         5.6710    3.5840    4.7740 h1        1 MOL      0.094413
    168 H76         4.8630    3.1960    2.6230 hn        1 MOL      0.208313
    169 Ca1        -0.4360   -1.3120   -0.8730 Ca        1 MOL      1.668591
    170 O24        -0.1440   -0.6690   -3.3820 oh        1 MOL     -0.859003
    171 H77         0.2840   -0.0320   -3.9550 ho        1 MOL      0.420417
    172 H78        -0.6890   -1.1880   -3.9800 ho        1 MOL      0.420417
    173 O25        -0.6350    1.4410   -1.4120 oh        1 MOL     -0.859003
    174 H79        -0.8690    1.5270   -2.3270 ho        1 MOL      0.420417
    175 H80        -0.8660    2.2820   -1.0200 ho        1 MOL      0.420417
    176 O26        -2.1710   -1.2020    1.0170 oh        1 MOL     -0.859003
    177 H81        -2.0920   -0.5520    1.7060 ho        1 MOL      0.420417
    178 H82        -2.9860   -0.9760    0.5690 ho        1 MOL      0.420417
@<TRIPOS>BOND
     1    1    2 1   
     2    1    4 1   
     3    1    5 1   
     4    1    6 1   
     5    2    3 2   
     6    2    7 1   
     7    7    8 1   
     8    7   15 1   
     9    8    9 1   
    10    8   11 1   
    11    8   16 1   
    12    9   10 2   
    13    9   19 1   
    14   11   12 1   
    15   11   17 1   
    16   11   18 1   
    17   12   13 1   
    18   12   14 1   
    19   19   20 1   
    20   19   24 1   
    21   20   21 1   
    22   20   23 1   
    23   20   25 1   
    24   21   22 2   
    25   21   29 1   
    26   23   26 1   
    27   23   27 1   
    28   23   28 1   
    29   29   30 1   
    30   29   37 1   
    31   30   31 1   
    32   30   33 1   
    33   30   38 1   
    34   31   32 2   
    35   31   41 1   
    36   33   34 1   
    37   33   39 1   
    38   33   40 1   
    39   34   35 1   
    40   34   36 1   
    41   41   42 1   
    42   41   45 1   
    43   42   43 1   
    44   42   46 1   
    45   42   47 1   
    46   43   44 2   
    47   43   48 1   
    48   48   49 1   
    49   48   56 1   
    50   49   50 1   
    51   49   52 1   
    52   49   57 1   
    53   50   51 2   
    54   50   62 1   
    55   52   53 1   
    56   52   58 1   
    57   52   59 1   
    58   53   54 1   
    59   53   55 2   
    60   54   60 1   
    61   54   61 1   
    62   62   63 1   
    63   62   66 1   
    64   63   64 1   
    65   63   67 1   
    66   63   68 1   
    67   64   65 2   
    68   64   69 1   
    69   69   70 1   
    70   69   76 1   
    71   70   71 1   
    72   70   73 1   
    73   70   77 1   
    74   71   72 2   
    75   71   83 1   
    76   73   74 1   
    77   73   75 1   
    78   73   78 1   
    79   74   80 1   
    80   74   81 1   
    81   74   82 1   
    82   75   79 1   
    83   83   84 1   
    84   83   91 1   
    85   84   85 1   
    86   84   87 1   
    87   84   92 1   
    88   85   86 2   
    89   85  102 1   
    90   87   88 1   
    91   87   89 1   
    92   87   93 1   
    93   88   90 1   
    94   88   94 1   
    95   88   95 1   
    96   89   96 1   
    97   89   97 1   
    98   89   98 1   
    99   90   99 1   
   100   90  100 1   
   101   90  101 1   
   102  102  103 1   
   103  102  110 1   
   104  103  104 1   
   105  103  106 1   
   106  103  111 1   
   107  104  105 2   
   108  104  114 1   
   109  106  107 1   
   110  106  112 1   
   111  106  113 1   
   112  107  108 1   
   113  107  109 1   
   114  114  115 1   
   115  114  125 1   
   116  115  116 1   
   117  115  118 1   
   118  115  126 1   
   119  116  117 2   
   120  116  134 1   
   121  118  119 1   
   122  118  127 1   
   123  118  128 1   
   124  119  120 ar  
   125  119  121 ar  
   126  120  122 ar  
   127  120  129 1   
   128  121  123 ar  
   129  121  130 1   
   130  122  124 ar  
   131  122  131 1   
   132  123  124 ar  
   133  123  132 1   
   134  124  133 1   
   135  134  135 1   
   136  134  140 1   
   137  135  136 1   
   138  135  138 1   
   139  135  141 1   
   140  136  137 2   
   141  136  148 1   
   142  138  139 1   
   143  138  142 1   
   144  138  143 1   
   145  139  140 1   
   146  139  144 1   
   147  139  145 1   
   148  140  146 1   
   149  140  147 1   
   150  148  149 1   
   151  148  157 1   
   152  149  150 1   
   153  149  152 1   
   154  149  158 1   
   155  150  151 2   
   156  150  163 1   
   157  152  153 1   
   158  152  159 1   
   159  152  160 1   
   160  153  154 1   
   161  153  161 1   
   162  153  162 1   
   163  154  155 1   
   164  154  156 1   
   165  163  164 1   
   166  163  168 1   
   167  164  165 1   
   168  164  166 1   
   169  164  167 1   
   170  170  171 1   
   171  170  172 1   
   172  173  174 1   
   173  173  175 1   
   174  176  177 1   
   175  176  178 1   
@<TRIPOS>SUBSTRUCTURE
     1 MOL         1 TEMP              0 ****  ****    0 ROOT
