@<TRIPOS>MOLECULE
MOL
  198   191     1     0     0
SMALL
resp


@<TRIPOS>ATOM
      1 C1         -4.8270    6.1080    0.9720 c3        1 MOL     -0.401078
      2 C2         -6.3150    5.8970    1.1710 c         1 MOL      0.669838
      3 O1         -7.1770    6.5840    0.6190 o         1 MOL     -0.551892
      4 H1         -4.6000    6.1070   -0.0940 hc        1 MOL      0.105635
      5 H2         -4.5340    7.0650    1.4040 hc        1 MOL      0.105635
      6 H3         -4.2770    5.3040    1.4600 hc        1 MOL      0.105635
      7 N1         -6.7540    4.8600    1.9400 n         1 MOL     -0.593880
      8 C3         -7.9890    4.0880    1.7970 c3        1 MOL      0.270224
      9 C4         -8.3480    3.5000    0.3800 c         1 MOL      0.574263
     10 O2         -7.5370    3.6260   -0.4950 o         1 MOL     -0.554182
     11 C5         -9.1460    4.8760    2.4010 c3        1 MOL     -0.438710
     12 C6        -10.4540    4.0770    2.6420 c         1 MOL      0.803036
     13 O3        -11.5600    4.6580    2.4870 o         1 MOL     -0.725798
     14 O4        -10.4160    2.9070    3.0440 o         1 MOL     -0.725798
     15 H4         -6.0440    4.3700    2.4580 hn        1 MOL      0.298157
     16 H5         -7.8810    3.2010    2.4310 h1        1 MOL      0.016895
     17 H6         -9.3690    5.7430    1.7800 hc        1 MOL      0.100226
     18 H7         -8.8180    5.1510    3.4080 hc        1 MOL      0.100226
     19 N2         -9.4200    2.7410    0.2510 n         1 MOL     -0.406652
     20 C7         -9.6980    1.9270   -0.9250 c3        1 MOL      0.064992
     21 C8         -8.6350    0.9190   -1.3250 c         1 MOL      0.377755
     22 O5         -8.5650    0.4980   -2.4570 o         1 MOL     -0.537255
     23 C9        -10.1450    2.7930   -2.1070 c3        1 MOL     -0.047712
     24 C10       -11.3240    3.7200   -1.7930 c3        1 MOL     -0.057379
     25 C11       -11.6970    4.5990   -2.9950 c3        1 MOL     -0.080539
     26 C12       -13.1220    5.2500   -2.5920 c3        1 MOL      0.091456
     27 N3        -13.5920    6.1820   -3.6740 n4        1 MOL     -0.421840
     28 H8        -10.0340    2.6990    1.0500 hn        1 MOL      0.221031
     29 H9        -10.5050    1.2760   -0.5740 h1        1 MOL      0.090492
     30 H10       -10.4580    2.1160   -2.9040 hc        1 MOL      0.053461
     31 H11        -9.3330    3.3890   -2.5120 hc        1 MOL      0.053461
     32 H12       -11.0590    4.4230   -0.9980 hc        1 MOL      0.038644
     33 H13       -12.1640    3.1010   -1.4860 hc        1 MOL      0.038644
     34 H14       -11.7550    4.0030   -3.9060 hc        1 MOL      0.054032
     35 H15       -10.9440    5.3670   -3.1990 hc        1 MOL      0.054032
     36 H16       -13.0210    5.7560   -1.6310 hx        1 MOL      0.082619
     37 H17       -13.9050    4.5160   -2.4110 hx        1 MOL      0.082619
     38 H18       -12.8920    6.9000   -3.8250 hn        1 MOL      0.326392
     39 H19       -13.8290    5.7540   -4.5580 hn        1 MOL      0.326392
     40 H20       -14.4330    6.6210   -3.3530 hn        1 MOL      0.326392
     41 N4         -7.7840    0.4850   -0.4360 n         1 MOL     -0.290698
     42 C13        -6.9380   -0.6800   -0.7460 c3        1 MOL      0.258288
     43 C14        -6.6090   -1.4520    0.4770 c         1 MOL      0.284682
     44 O6         -6.2930   -0.8090    1.4910 o         1 MOL     -0.525334
     45 C15        -5.6390   -0.1620   -1.3490 c3        1 MOL     -0.169393
     46 C16        -4.6770   -1.3570   -1.6610 c         1 MOL      0.576490
     47 O7         -4.8770   -1.9850   -2.7170 o         1 MOL     -0.659485
     48 O8         -3.7160   -1.6670   -0.9320 o         1 MOL     -0.659485
     49 H21        -7.7650    0.9170    0.4790 hn        1 MOL      0.196591
     50 H22        -7.3900   -1.4090   -1.4100 h1        1 MOL      0.032460
     51 H23        -5.2360    0.4540   -0.5480 hc        1 MOL      0.061978
     52 H24        -5.8040    0.5650   -2.1530 hc        1 MOL      0.061978
     53 N5         -6.4840   -2.7770    0.5540 n         1 MOL     -0.152572
     54 C17        -6.8590   -3.7350   -0.4390 c3        1 MOL     -0.189443
     55 C18        -5.9300   -4.8560   -0.6000 c         1 MOL      0.643158
     56 O9         -6.5010   -5.9610   -0.8320 o         1 MOL     -0.596647
     57 H25        -6.2620   -3.2030    1.4440 hn        1 MOL      0.235404
     58 H26        -6.9240   -3.3320   -1.4460 h1        1 MOL      0.098491
     59 H27        -7.8480   -4.0920   -0.1610 h1        1 MOL      0.098491
     60 N6         -4.6320   -4.7240   -0.4900 n         1 MOL     -0.337059
     61 C19        -3.6450   -5.7880   -0.3470 c3        1 MOL     -0.074937
     62 C20        -2.2940   -5.2430    0.0470 c         1 MOL      0.533259
     63 O10        -1.9470   -4.1400   -0.4050 o         1 MOL     -0.728858
     64 C21        -3.6460   -6.6320   -1.5730 c3        1 MOL      0.123258
     65 C22        -3.5660   -6.0540   -2.9760 c         1 MOL      0.524164
     66 O11        -3.1970   -4.8400   -3.1350 o         1 MOL     -0.644848
     67 O12        -3.8250   -6.7840   -3.9370 o         1 MOL     -0.644848
     68 H28        -4.3510   -3.7930   -0.2250 hn        1 MOL      0.211693
     69 H29        -3.8940   -6.5410    0.3940 h1        1 MOL      0.024073
     70 H30        -4.5370   -7.2640   -1.5760 hc        1 MOL      0.000124
     71 H31        -2.9800   -7.5040   -1.5290 hc        1 MOL      0.000124
     72 N7         -1.5360   -5.9430    0.8130 n         1 MOL     -0.463215
     73 C23        -0.1760   -5.5260    1.1970 c3        1 MOL      0.101951
     74 C24        -0.0630   -4.5540    2.4080 c         1 MOL      0.434009
     75 O13         0.7310   -4.6680    3.3450 o         1 MOL     -0.534072
     76 H32        -1.7360   -6.8850    1.1110 hn        1 MOL      0.337683
     77 H33         0.3150   -5.0510    0.3470 h1        1 MOL      0.033125
     78 H34         0.3980   -6.4110    1.4360 h1        1 MOL      0.033125
     79 N8         -1.0090   -3.6170    2.4420 n         1 MOL     -0.329631
     80 C25        -1.0400   -2.4300    3.3670 c3        1 MOL     -0.216492
     81 C26        -0.6220   -1.1070    2.6810 c         1 MOL      0.788363
     82 O14        -0.9570   -0.9510    1.5090 o         1 MOL     -0.595085
     83 C27        -2.3520   -2.3880    4.0730 c3        1 MOL      0.229678
     84 C28        -3.5030   -1.8730    3.1960 c3        1 MOL     -0.047805
     85 O15        -2.7950   -3.6820    4.5490 oh        1 MOL     -0.605765
     86 H35        -1.6360   -3.5730    1.6460 hn        1 MOL      0.369466
     87 H36        -0.2990   -2.6140    4.1410 h1        1 MOL      0.113295
     88 H37        -2.2990   -1.6830    4.9130 h1        1 MOL      0.004458
     89 H38        -2.1670   -3.9690    5.2050 ho        1 MOL      0.413140
     90 H39        -3.6340   -2.3670    2.2330 hc        1 MOL      0.031582
     91 H40        -4.4650   -1.9420    3.6930 hc        1 MOL      0.031582
     92 H41        -3.4440   -0.8020    2.9510 hc        1 MOL      0.031582
     93 N9          0.0560   -0.1630    3.3120 n         1 MOL     -0.544161
     94 C29         0.4890    1.0980    2.5220 c3        1 MOL     -0.208772
     95 C30         1.7760    0.8140    1.7010 c         1 MOL      0.473177
     96 O16         2.0540    1.5010    0.7050 o         1 MOL     -0.532567
     97 C31         0.5240    2.3220    3.4480 c3        1 MOL      0.239371
     98 C32         1.5860    2.1360    4.5850 c3        1 MOL      0.087359
     99 C33        -0.8870    2.6910    3.9990 c3        1 MOL     -0.368641
    100 C34         1.8060    3.4980    5.3310 c3        1 MOL     -0.327388
    101 H42         0.4930   -0.3190    4.2080 hn        1 MOL      0.290574
    102 H43        -0.2650    1.3640    1.7770 h1        1 MOL      0.180755
    103 H44         0.8610    3.1410    2.8010 hc        1 MOL      0.019827
    104 H45         2.5040    1.7660    4.1430 hc        1 MOL     -0.001178
    105 H46         1.1730    1.4050    5.2860 hc        1 MOL     -0.001178
    106 H47        -1.0360    3.7270    4.3200 hc        1 MOL      0.095992
    107 H48        -1.6280    2.4700    3.2420 hc        1 MOL      0.095992
    108 H49        -1.1760    2.1070    4.8800 hc        1 MOL      0.095992
    109 H50         0.8700    3.8980    5.7230 hc        1 MOL      0.088007
    110 H51         2.5680    3.3740    6.0970 hc        1 MOL      0.088007
    111 H52         1.9570    4.2130    4.5250 hc        1 MOL      0.088007
    112 N10         2.5400   -0.2290    2.0010 n         1 MOL     -0.282804
    113 C35         3.6930   -0.7560    1.1830 c3        1 MOL     -0.093121
    114 C36         4.8590   -1.2380    2.0270 c         1 MOL      0.635548
    115 O17         4.7870   -2.1510    2.8270 o         1 MOL     -0.547765
    116 C37         3.3550   -1.8160    0.1650 c3        1 MOL      0.397753
    117 C38         2.5470   -3.0340    0.5700 c3        1 MOL     -0.301628
    118 O18         2.6140   -1.2630   -0.9140 oh        1 MOL     -0.625718
    119 H53         2.2650   -0.7170    2.8340 hn        1 MOL      0.199307
    120 H54         4.1020    0.0890    0.6340 h1        1 MOL      0.078993
    121 H55         4.2970   -2.0710   -0.3210 h1        1 MOL     -0.012229
    122 H56         3.0980   -0.4910   -1.2110 ho        1 MOL      0.402145
    123 H57         1.6170   -2.8080    1.0940 hc        1 MOL      0.079917
    124 H58         2.2310   -3.6070   -0.3060 hc        1 MOL      0.079917
    125 H59         3.2150   -3.6940    1.1160 hc        1 MOL      0.079917
    126 N11         6.0340   -0.8630    1.6320 n         1 MOL     -0.501377
    127 C39         7.2980   -1.3020    2.2600 c3        1 MOL     -0.038337
    128 C40         8.4410   -0.3400    1.8950 c         1 MOL      0.640463
    129 O19         8.8370    0.3980    2.7420 o         1 MOL     -0.574056
    130 C41         7.6890   -2.7440    1.7170 c3        1 MOL      0.211981
    131 C42         8.9160   -3.2910    2.3710 c3        1 MOL     -0.302087
    132 O20         7.6360   -2.9180    0.3470 oh        1 MOL     -0.616910
    133 H60         6.1990   -0.5170    0.6980 hn        1 MOL      0.273617
    134 H61         7.1510   -1.2630    3.3360 h1        1 MOL      0.134495
    135 H62         6.9260   -3.4070    2.1190 h1        1 MOL      0.069524
    136 H63         7.8340   -3.8480    0.2160 ho        1 MOL      0.425954
    137 H64         8.9880   -4.3360    2.0790 hc        1 MOL      0.074832
    138 H65         9.7660   -2.6550    2.1150 hc        1 MOL      0.074832
    139 H66         8.8330   -3.2110    3.4560 hc        1 MOL      0.074832
    140 N12         8.7570   -0.1890    0.6360 n         1 MOL     -0.461439
    141 C43         9.9270    0.6450    0.0860 c3        1 MOL      0.079532
    142 C44         9.5290    1.6570   -1.0230 c         1 MOL      0.423472
    143 O21         8.6990    1.2290   -1.8590 o         1 MOL     -0.485339
    144 C45        11.1510   -0.1730   -0.2180 c3        1 MOL     -0.165946
    145 C46        12.4520    0.5430   -0.5040 c3        1 MOL      0.264575
    146 C47        13.7000   -0.3410   -0.7180 c3        1 MOL     -0.165945
    147 C48        14.8610    0.1520   -1.5370 c3        1 MOL      0.005235
    148 N13        15.5580    1.3250   -0.9900 n4        1 MOL     -0.364688
    149 H67         8.3000   -0.8640    0.0250 hn        1 MOL      0.294237
    150 H68        10.2730    1.2840    0.8970 h1        1 MOL      0.058593
    151 H69        10.8980   -0.9270   -0.9550 hc        1 MOL      0.059483
    152 H70        11.3320   -0.8080    0.6500 hc        1 MOL      0.059483
    153 H71        12.6720    1.2900    0.2600 hc        1 MOL     -0.036463
    154 H72        12.3400    1.0470   -1.4660 hc        1 MOL     -0.036463
    155 H73        13.3240   -1.1930   -1.2880 hc        1 MOL      0.026804
    156 H74        14.0090   -0.6600    0.2710 hc        1 MOL      0.026804
    157 H75        14.4700    0.3530   -2.5310 hx        1 MOL      0.118933
    158 H76        15.5880   -0.6480   -1.6540 hx        1 MOL      0.118933
    159 H77        14.9010    2.0420   -0.7410 hn        1 MOL      0.311491
    160 H78        15.9460    0.9800   -0.1250 hn        1 MOL      0.311491
    161 H79        16.3030    1.6600   -1.5800 hn        1 MOL      0.311491
    162 N14        10.1110    2.8890   -1.0120 n         1 MOL     -0.300181
    163 C49         9.8620    3.8740   -2.0370 c3        1 MOL      0.159849
    164 C50         8.4050    4.4340   -2.0510 c         1 MOL      0.342769
    165 O22         7.7610    4.3480   -3.0970 o         1 MOL     -0.508921
    166 C51        10.9680    4.9880   -1.9070 c3        1 MOL      0.067987
    167 C52        12.2540    4.9740   -2.6990 c3        1 MOL     -0.280091
    168 C53        13.0770    3.6680   -2.5950 c         1 MOL      0.760551
    169 O23        12.9270    2.7280   -3.4370 o         1 MOL     -0.719381
    170 O24        13.8960    3.6880   -1.6760 o         1 MOL     -0.719381
    171 H80        10.7560    3.0710   -0.2520 hn        1 MOL      0.218167
    172 H81        10.0740    3.4350   -3.0130 h1        1 MOL      0.065663
    173 H82        11.2860    5.0680   -0.8630 hc        1 MOL     -0.013420
    174 H83        10.5210    5.9430   -2.1870 hc        1 MOL     -0.013420
    175 H84        12.7110    5.9360   -2.4690 hc        1 MOL      0.072764
    176 H85        11.9250    5.0760   -3.7340 hc        1 MOL      0.072764
    177 N15         7.8610    4.8670   -0.9230 n         1 MOL     -0.326532
    178 C54         8.2620    5.0380    0.4950 c3        1 MOL     -0.002601
    179 H86         7.3760    5.0080    1.1290 h1        1 MOL      0.042973
    180 H87         8.9400    4.2340    0.7800 h1        1 MOL      0.042973
    181 H88         8.7650    5.9980    0.6170 h1        1 MOL      0.042973
    182 H89         6.9130    5.1450   -1.1420 hn        1 MOL      0.275841
    183 Ca1        -2.0580   -2.5800   -2.6280 Ca        1 MOL      1.768981
    184 O25        -0.0560   -1.7120   -4.3980 oh        1 MOL     -0.867044
    185 H90         0.8750   -1.5460   -4.2630 ho        1 MOL      0.429191
    186 H91        -0.1410   -1.9220   -5.3260 ho        1 MOL      0.429191
    187 O26        -0.1870   -1.4470   -1.0550 oh        1 MOL     -0.867044
    188 H92         0.7620   -1.4810   -1.1080 ho        1 MOL      0.429191
    189 H93        -0.3710   -1.2790   -0.1340 ho        1 MOL      0.429191
    190 O27        -2.6470   -0.2190   -3.5960 oh        1 MOL     -0.867044
    191 H94        -2.5350    0.4960   -2.9680 ho        1 MOL      0.429191
    192 H95        -2.6060    0.2070   -4.4510 ho        1 MOL      0.429191
    193 O28         0.1110   -4.2190   -2.4360 oh        1 MOL     -0.867044
    194 H96         0.0490   -5.1350   -2.1580 ho        1 MOL      0.429191
    195 H97         1.0500   -4.0760   -2.5570 ho        1 MOL      0.429191
    196 O29        -3.0000   -2.7580   -5.1780 oh        1 MOL     -0.867044
    197 H98        -3.0230   -3.4270   -5.8590 ho        1 MOL      0.429191
    198 H99        -3.5280   -2.0370   -5.5130 ho        1 MOL      0.429191
@<TRIPOS>BOND
     1    1    2 1   
     2    1    4 1   
     3    1    5 1   
     4    1    6 1   
     5    2    3 2   
     6    2    7 1   
     7    7    8 1   
     8    7   15 1   
     9    8    9 1   
    10    8   11 1   
    11    8   16 1   
    12    9   10 2   
    13    9   19 1   
    14   11   12 1   
    15   11   17 1   
    16   11   18 1   
    17   12   13 1   
    18   12   14 1   
    19   19   20 1   
    20   19   28 1   
    21   20   21 1   
    22   20   23 1   
    23   20   29 1   
    24   21   22 2   
    25   21   41 1   
    26   23   24 1   
    27   23   30 1   
    28   23   31 1   
    29   24   25 1   
    30   24   32 1   
    31   24   33 1   
    32   25   26 1   
    33   25   34 1   
    34   25   35 1   
    35   26   27 1   
    36   26   36 1   
    37   26   37 1   
    38   27   38 1   
    39   27   39 1   
    40   27   40 1   
    41   41   42 1   
    42   41   49 1   
    43   42   43 1   
    44   42   45 1   
    45   42   50 1   
    46   43   44 2   
    47   43   53 1   
    48   45   46 1   
    49   45   51 1   
    50   45   52 1   
    51   46   47 1   
    52   46   48 1   
    53   53   54 1   
    54   53   57 1   
    55   54   55 1   
    56   54   58 1   
    57   54   59 1   
    58   55   56 2   
    59   55   60 1   
    60   60   61 1   
    61   60   68 1   
    62   61   62 1   
    63   61   64 1   
    64   61   69 1   
    65   62   63 2   
    66   62   72 1   
    67   64   65 1   
    68   64   70 1   
    69   64   71 1   
    70   65   66 1   
    71   65   67 1   
    72   72   73 1   
    73   72   76 1   
    74   73   74 1   
    75   73   77 1   
    76   73   78 1   
    77   74   75 2   
    78   74   79 1   
    79   79   80 1   
    80   79   86 1   
    81   80   81 1   
    82   80   83 1   
    83   80   87 1   
    84   81   82 2   
    85   81   93 1   
    86   83   84 1   
    87   83   85 1   
    88   83   88 1   
    89   84   90 1   
    90   84   91 1   
    91   84   92 1   
    92   85   89 1   
    93   93   94 1   
    94   93  101 1   
    95   94   95 1   
    96   94   97 1   
    97   94  102 1   
    98   95   96 2   
    99   95  112 1   
   100   97   98 1   
   101   97   99 1   
   102   97  103 1   
   103   98  100 1   
   104   98  104 1   
   105   98  105 1   
   106   99  106 1   
   107   99  107 1   
   108   99  108 1   
   109  100  109 1   
   110  100  110 1   
   111  100  111 1   
   112  112  113 1   
   113  112  119 1   
   114  113  114 1   
   115  113  116 1   
   116  113  120 1   
   117  114  115 2   
   118  114  126 1   
   119  116  117 1   
   120  116  118 1   
   121  116  121 1   
   122  117  123 1   
   123  117  124 1   
   124  117  125 1   
   125  118  122 1   
   126  126  127 1   
   127  126  133 1   
   128  127  128 1   
   129  127  130 1   
   130  127  134 1   
   131  128  129 2   
   132  128  140 1   
   133  130  131 1   
   134  130  132 1   
   135  130  135 1   
   136  131  137 1   
   137  131  138 1   
   138  131  139 1   
   139  132  136 1   
   140  140  141 1   
   141  140  149 1   
   142  141  142 1   
   143  141  144 1   
   144  141  150 1   
   145  142  143 2   
   146  142  162 1   
   147  144  145 1   
   148  144  151 1   
   149  144  152 1   
   150  145  146 1   
   151  145  153 1   
   152  145  154 1   
   153  146  147 1   
   154  146  155 1   
   155  146  156 1   
   156  147  148 1   
   157  147  157 1   
   158  147  158 1   
   159  148  159 1   
   160  148  160 1   
   161  148  161 1   
   162  162  163 1   
   163  162  171 1   
   164  163  164 1   
   165  163  166 1   
   166  163  172 1   
   167  164  165 2   
   168  164  177 1   
   169  166  167 1   
   170  166  173 1   
   171  166  174 1   
   172  167  168 1   
   173  167  175 1   
   174  167  176 1   
   175  168  169 1   
   176  168  170 1   
   177  177  178 1   
   178  177  182 1   
   179  178  179 1   
   180  178  180 1   
   181  178  181 1   
   182  184  185 1   
   183  184  186 1   
   184  187  188 1   
   185  187  189 1   
   186  190  191 1   
   187  190  192 1   
   188  193  194 1   
   189  193  195 1   
   190  196  197 1   
   191  196  198 1   
@<TRIPOS>SUBSTRUCTURE
     1 MOL         1 TEMP              0 ****  ****    0 ROOT
