@<TRIPOS>MOLECULE
MOL
  192   187     1     0     0
SMALL
resp


@<TRIPOS>ATOM
      1 C1          6.6220   -5.2860   -2.5270 c3        1 MOL     -0.345783
      2 C2          5.9250   -4.1710   -1.6600 c         1 MOL      0.735618
      3 O1          5.4810   -4.4550   -0.5390 o         1 MOL     -0.615594
      4 H1          7.5530   -5.5890   -2.0470 hc        1 MOL      0.084993
      5 H2          5.9610   -6.1480   -2.6120 hc        1 MOL      0.084993
      6 H3          6.8380   -4.8920   -3.5210 hc        1 MOL      0.084993
      7 N1          5.7810   -2.9580   -2.1470 n         1 MOL     -0.614586
      8 C3          5.3140   -1.7990   -1.4140 c3        1 MOL      0.244985
      9 C4          3.7650   -1.4690   -1.4540 c         1 MOL      0.271477
     10 O2          3.3670   -0.3650   -1.0940 o         1 MOL     -0.250768
     11 C5          6.2160   -0.5500   -1.8170 c3        1 MOL     -0.229941
     12 C6          6.4260   -0.4290   -3.2810 c         1 MOL      0.782736
     13 O3          5.7180    0.2920   -3.9740 o         1 MOL     -0.739694
     14 O4          7.3120   -1.1410   -3.8080 o         1 MOL     -0.739694
     15 H4          6.3460   -2.7340   -2.9580 hn        1 MOL      0.294863
     16 H5          5.5170   -2.0950   -0.3850 h1        1 MOL      0.162535
     17 H6          7.1770   -0.7110   -1.3250 hc        1 MOL      0.029375
     18 H7          5.8750    0.3560   -1.3080 hc        1 MOL      0.029375
     19 N2          2.9150   -2.3830   -1.7770 n         1 MOL     -0.344323
     20 C7          1.4060   -2.3290   -1.7170 c3        1 MOL      0.179485
     21 C8          0.8040   -3.1450   -0.5420 c         1 MOL      0.339050
     22 O5          1.3800   -4.1910   -0.2690 o         1 MOL     -0.496452
     23 C9          0.7720   -2.7600   -3.0920 c3        1 MOL     -0.180053
     24 C10         1.2940   -1.8500   -4.2620 c3        1 MOL     -0.034471
     25 C11         0.6420   -2.1830   -5.6510 c3        1 MOL     -0.069659
     26 C12         0.9670   -3.5620   -6.2300 c3        1 MOL      0.069470
     27 N3          0.5560   -3.6960   -7.6460 n4        1 MOL     -0.181833
     28 H8          3.3090   -3.2810   -2.0180 hn        1 MOL      0.232936
     29 H9          1.1810   -1.2800   -1.5610 h1        1 MOL     -0.011958
     30 H10        -0.3140   -2.6590   -3.0990 hc        1 MOL      0.077233
     31 H11         0.9730   -3.8090   -3.2820 hc        1 MOL      0.077233
     32 H12         2.3730   -1.9560   -4.4100 hc        1 MOL      0.075222
     33 H13         1.1210   -0.7820   -4.0960 hc        1 MOL      0.075222
     34 H14         1.0370   -1.4610   -6.3690 hc        1 MOL      0.034263
     35 H15        -0.4500   -2.1200   -5.6320 hc        1 MOL      0.034263
     36 H16         0.4660   -4.3380   -5.6510 hx        1 MOL      0.060771
     37 H17         2.0440   -3.7180   -6.1580 hx        1 MOL      0.060771
     38 H18         0.5790   -4.6120   -8.0680 hn        1 MOL      0.272695
     39 H19        -0.3730   -3.3490   -7.8150 hn        1 MOL      0.272695
     40 H20         1.0210   -3.0540   -8.2690 hn        1 MOL      0.272695
     41 N4         -0.2270   -2.7580    0.1840 n         1 MOL     -0.221949
     42 C13        -0.9870   -1.4990    0.2000 c3        1 MOL     -0.022869
     43 C14        -1.3190   -0.7610   -1.1270 c         1 MOL      0.234442
     44 O6         -0.6370    0.1630   -1.4120 o         1 MOL     -0.384302
     45 C15        -0.4690   -0.4880    1.3180 c3        1 MOL     -0.074459
     46 C16        -0.5910   -0.9810    2.8080 c         1 MOL      0.220939
     47 O7         -1.2760   -1.9720    3.1940 o         1 MOL     -0.590473
     48 O8          0.1210   -0.3760    3.6620 o         1 MOL     -0.590473
     49 H21        -0.4160   -3.3770    0.9550 hn        1 MOL      0.222898
     50 H22        -1.9220   -1.8770    0.6030 h1        1 MOL      0.031022
     51 H23        -0.9110    0.5030    1.3580 hc        1 MOL      0.150831
     52 H24         0.6020   -0.4400    1.0920 hc        1 MOL      0.150831
     53 N5         -2.2980   -1.1890   -1.9080 n         1 MOL     -0.226346
     54 C17        -3.2680   -2.2890   -1.5830 c3        1 MOL      0.129651
     55 C18        -4.0120   -2.7980   -2.8410 c         1 MOL      0.414399
     56 O9         -3.4980   -2.5510   -3.9400 o         1 MOL     -0.531704
     57 H25        -2.5420   -0.6540   -2.7290 hn        1 MOL      0.281572
     58 H26        -4.0310   -2.0150   -0.8540 h1        1 MOL      0.002623
     59 H27        -2.8170   -3.1340   -1.0710 h1        1 MOL      0.002623
     60 N6         -5.1280   -3.5760   -2.7420 n         1 MOL     -0.332522
     61 C19        -5.8020   -4.0200   -1.4770 c3        1 MOL      0.030385
     62 C20        -6.6390   -2.8310   -0.8980 c         1 MOL      0.421181
     63 O10        -7.1060   -1.9340   -1.5390 o         1 MOL     -0.397701
     64 C21        -6.6760   -5.2370   -1.6730 c3        1 MOL     -0.219263
     65 C22        -7.7290   -4.8830   -2.7120 c         1 MOL      0.683822
     66 O11        -7.4870   -4.8140   -3.9340 o         1 MOL     -0.651427
     67 O12        -8.9450   -4.6190   -2.3840 o         1 MOL     -0.651427
     68 H28        -5.5150   -4.0180   -3.5590 hn        1 MOL      0.258854
     69 H29        -5.0740   -4.2610   -0.7020 h1        1 MOL      0.020606
     70 H30        -7.2310   -5.5490   -0.7960 hc        1 MOL      0.043432
     71 H31        -6.0400   -6.0530   -2.0190 hc        1 MOL      0.043432
     72 N7         -6.7910   -2.9040    0.4210 n         1 MOL     -0.256169
     73 C23        -7.7210   -2.0260    1.1090 c3        1 MOL     -0.471821
     74 C24        -7.1690   -0.6250    1.4910 c         1 MOL      0.530344
     75 O13        -7.9190    0.3390    1.5590 o         1 MOL     -0.528023
     76 H32        -6.4810   -3.7720    0.8370 hn        1 MOL      0.242649
     77 H33        -8.0500   -2.5050    2.0310 h1        1 MOL      0.220256
     78 H34        -8.5260   -1.7520    0.4340 h1        1 MOL      0.220256
     79 N8         -5.8210   -0.4510    1.6140 n         1 MOL     -0.308938
     80 C25        -5.1590    0.8780    1.7920 c3        1 MOL     -0.094785
     81 C26        -5.1390    1.6140    0.5020 c         1 MOL      0.649482
     82 O14        -4.8190    1.0600   -0.5380 o         1 MOL     -0.583525
     83 C27        -3.7590    0.7370    2.3830 c3        1 MOL      0.633506
     84 C28        -3.8300    0.3880    3.8610 c3        1 MOL     -0.520576
     85 O15        -3.0890    1.9890    2.2290 oh        1 MOL     -0.656205
     86 H35        -5.2920   -1.3130    1.7090 hn        1 MOL      0.164599
     87 H36        -5.7440    1.4840    2.4920 h1        1 MOL      0.023000
     88 H37        -3.2180    0.0150    1.7680 h1        1 MOL      0.023423
     89 H38        -3.4780    2.5870    2.8730 ho        1 MOL      0.376227
     90 H39        -2.9870    0.8520    4.3700 hc        1 MOL      0.112243
     91 H40        -4.7240    0.7820    4.3360 hc        1 MOL      0.112243
     92 H41        -3.8350   -0.7050    3.9100 hc        1 MOL      0.112243
     93 N9         -5.3730    2.9210    0.5510 n         1 MOL     -0.303116
     94 C29        -5.3730    3.9050   -0.5800 c3        1 MOL     -0.072582
     95 C30        -4.0480    4.5820   -1.0610 c         1 MOL      0.424998
     96 O16        -4.0940    5.4010   -2.0460 o         1 MOL     -0.518615
     97 C31        -6.6650    4.7790   -0.3810 c3        1 MOL      0.012893
     98 C32        -6.8350    5.5790    0.8950 c3        1 MOL      0.067342
     99 C33        -7.8800    3.8950   -0.4870 c3        1 MOL     -0.333059
    100 C34        -5.7680    6.7320    1.0360 c3        1 MOL     -0.167740
    101 H42        -5.6500    3.2710    1.4610 hn        1 MOL      0.214098
    102 H43        -5.4660    3.2730   -1.4720 h1        1 MOL      0.141220
    103 H44        -6.7310    5.3780   -1.2900 hc        1 MOL      0.083527
    104 H45        -6.7060    5.0460    1.8310 hc        1 MOL     -0.001354
    105 H46        -7.7840    6.1050    0.9400 hc        1 MOL     -0.001354
    106 H47        -7.8980    3.0380    0.1910 hc        1 MOL      0.094027
    107 H48        -8.8570    4.3800   -0.4960 hc        1 MOL      0.094027
    108 H49        -7.8150    3.4320   -1.4760 hc        1 MOL      0.094027
    109 H50        -5.7510    7.2010    0.0500 hc        1 MOL      0.044751
    110 H51        -6.1520    7.4430    1.7650 hc        1 MOL      0.044751
    111 H52        -4.7620    6.4230    1.3260 hc        1 MOL      0.044751
    112 N10        -2.9080    4.2880   -0.4250 n         1 MOL     -0.157376
    113 C35        -1.6160    4.9780   -0.8400 c3        1 MOL     -0.326499
    114 C36        -0.3800    4.1490   -0.4350 c         1 MOL      0.723918
    115 O17        -0.2470    3.6930    0.7360 o         1 MOL     -0.501276
    116 C37        -1.5250    6.4270   -0.3280 c3        1 MOL      0.566649
    117 C38        -1.4000    6.4810    1.2520 c3        1 MOL     -0.554042
    118 O18        -2.6610    7.1800   -0.6390 oh        1 MOL     -0.624462
    119 H53        -2.9600    3.6570    0.3630 hn        1 MOL      0.166266
    120 H54        -1.4960    5.0120   -1.9210 h1        1 MOL      0.106376
    121 H55        -0.6360    6.8630   -0.7990 h1        1 MOL     -0.049172
    122 H56        -3.1540    6.5240   -1.1480 ho        1 MOL      0.337680
    123 H57        -1.1210    7.5140    1.4750 hc        1 MOL      0.138124
    124 H58        -2.2910    6.1350    1.7650 hc        1 MOL      0.138124
    125 H59        -0.5780    5.8170    1.5280 hc        1 MOL      0.138124
    126 N11         0.5350    3.8830   -1.3730 n         1 MOL     -0.655054
    127 C39         1.5360    2.8330   -1.1690 c3        1 MOL      0.034897
    128 C40         2.6600    3.2890   -0.2790 c         1 MOL      0.518028
    129 O19         2.7790    4.4070    0.0980 o         1 MOL     -0.556694
    130 C41         2.0660    2.3030   -2.4710 c3        1 MOL      0.757567
    131 C42         2.7930    3.3430   -3.3630 c3        1 MOL     -0.390427
    132 O20         0.9810    1.8250   -3.2030 oh        1 MOL     -0.664205
    133 H60         0.3670    4.2900   -2.2770 hn        1 MOL      0.344516
    134 H61         1.0480    1.9670   -0.7290 h1        1 MOL     -0.046368
    135 H62         2.8690    1.5980   -2.2600 h1        1 MOL     -0.195922
    136 H63         0.5910    1.1410   -2.6530 ho        1 MOL      0.347663
    137 H64         3.5480    3.9050   -2.8100 hc        1 MOL      0.085187
    138 H65         3.1990    2.8140   -4.2230 hc        1 MOL      0.085187
    139 H66         2.0940    4.1070   -3.7050 hc        1 MOL      0.085187
    140 N12         3.5360    2.3360    0.1210 n         1 MOL     -0.249586
    141 C43         4.7490    2.5380    1.0090 c3        1 MOL     -0.180566
    142 C44         5.0420    1.3700    1.8650 c         1 MOL      0.584629
    143 O21         5.5290    1.6080    2.9730 o         1 MOL     -0.590046
    144 C45         5.9810    2.9500    0.2300 c3        1 MOL     -0.121252
    145 C46         5.9190    4.2650   -0.6310 c3        1 MOL      0.163155
    146 C47         7.2940    4.4800   -1.2760 c3        1 MOL      0.093957
    147 C48         7.3590    5.9120   -1.9420 c3        1 MOL     -0.004859
    148 N13         8.7030    6.1190   -2.3700 n4        1 MOL     -0.251700
    149 H67         3.3530    1.4510   -0.3160 hn        1 MOL      0.173148
    150 H68         4.5020    3.2230    1.8230 h1        1 MOL      0.158956
    151 H69         6.3150    2.1560   -0.4430 hc        1 MOL      0.051574
    152 H70         6.7830    3.0900    0.9500 hc        1 MOL      0.051574
    153 H71         5.7950    5.1170    0.0340 hc        1 MOL     -0.024315
    154 H72         5.1520    4.1810   -1.4000 hc        1 MOL     -0.024315
    155 H73         7.5660    3.6590   -1.9370 hc        1 MOL     -0.008443
    156 H74         7.9170    4.4680   -0.3730 hc        1 MOL     -0.008443
    157 H75         7.0620    6.5620   -1.1150 hx        1 MOL      0.072209
    158 H76         6.6230    5.9560   -2.7500 hx        1 MOL      0.072209
    159 H77         9.0330    5.2640   -2.7950 hn        1 MOL      0.287050
    160 H78         8.7740    6.9110   -3.0030 hn        1 MOL      0.287050
    161 H79         9.3450    6.4100   -1.6490 hn        1 MOL      0.287050
    162 N14         4.4920    0.2200    1.5650 n         1 MOL      0.031032
    163 C49         4.5890   -0.8960    2.4740 c3        1 MOL     -0.608549
    164 C50         6.0830   -1.4340    2.7430 c         1 MOL      0.619792
    165 O22         6.8690   -1.4170    1.7970 o         1 MOL     -0.525769
    166 C51         3.6550   -2.0250    1.9870 c3        1 MOL      0.104623
    167 C52         3.4470   -3.2060    2.9400 c3        1 MOL     -0.183941
    168 C53         3.4600   -2.9760    4.4660 c         1 MOL      0.417682
    169 O23         4.3480   -3.4850    5.1800 o         1 MOL     -0.631215
    170 O24         2.5930   -2.2770    4.9540 o         1 MOL     -0.631215
    171 H80         4.1490    0.2230    0.6100 hn        1 MOL     -0.086316
    172 H81         4.1790   -0.5340    3.4210 h1        1 MOL      0.211748
    173 H82         4.0480   -2.3760    1.0320 hc        1 MOL      0.052799
    174 H83         2.6560   -1.5980    1.8830 hc        1 MOL      0.052799
    175 H84         4.3600   -3.7600    2.7340 hc        1 MOL      0.063758
    176 H85         2.5430   -3.7410    2.6750 hc        1 MOL      0.063758
    177 N15         6.3460   -2.0180    3.9510 n         1 MOL     -0.237538
    178 C54         7.6980   -2.3050    4.4180 c3        1 MOL     -0.259671
    179 H86         7.6490   -2.8210    5.3770 h1        1 MOL      0.102554
    180 H87         8.2080   -2.9380    3.6910 h1        1 MOL      0.102554
    181 H88         8.2480   -1.3710    4.5370 h1        1 MOL      0.102554
    182 H89         5.6220   -1.9940    4.6570 hn        1 MOL      0.329978
    183 Ca1        -0.0170   -2.4600    5.3040 Ca        1 MOL      1.765694
    184 O25        -2.2360   -1.1960    6.0830 oh        1 MOL     -0.894337
    185 H90        -2.9660   -1.7110    5.7490 ho        1 MOL      0.443013
    186 H91        -2.6530   -0.3890    6.4080 ho        1 MOL      0.443013
    187 O26         0.7180   -0.6810    7.1690 oh        1 MOL     -0.894337
    188 H92         0.3560    0.2030    7.2730 ho        1 MOL      0.443013
    189 H93         1.1780   -0.8370    7.9930 ho        1 MOL      0.443013
    190 O27        -2.4420   -3.8210    5.1130 oh        1 MOL     -0.894337
    191 H94        -3.2170   -3.9310    5.6610 ho        1 MOL      0.443013
    192 H95        -2.6630   -4.2480    4.2780 ho        1 MOL      0.443013
@<TRIPOS>BOND
     1    1    2 1   
     2    1    4 1   
     3    1    5 1   
     4    1    6 1   
     5    2    3 2   
     6    2    7 1   
     7    7    8 1   
     8    7   15 1   
     9    8    9 1   
    10    8   11 1   
    11    8   16 1   
    12    9   10 2   
    13    9   19 1   
    14   11   12 1   
    15   11   17 1   
    16   11   18 1   
    17   12   13 1   
    18   12   14 1   
    19   19   20 1   
    20   19   28 1   
    21   20   21 1   
    22   20   23 1   
    23   20   29 1   
    24   21   22 2   
    25   21   41 1   
    26   23   24 1   
    27   23   30 1   
    28   23   31 1   
    29   24   25 1   
    30   24   32 1   
    31   24   33 1   
    32   25   26 1   
    33   25   34 1   
    34   25   35 1   
    35   26   27 1   
    36   26   36 1   
    37   26   37 1   
    38   27   38 1   
    39   27   39 1   
    40   27   40 1   
    41   41   42 1   
    42   41   49 1   
    43   42   43 1   
    44   42   45 1   
    45   42   50 1   
    46   43   44 2   
    47   43   53 1   
    48   45   46 1   
    49   45   51 1   
    50   45   52 1   
    51   46   47 1   
    52   46   48 1   
    53   53   54 1   
    54   53   57 1   
    55   54   55 1   
    56   54   58 1   
    57   54   59 1   
    58   55   56 2   
    59   55   60 1   
    60   60   61 1   
    61   60   68 1   
    62   61   62 1   
    63   61   64 1   
    64   61   69 1   
    65   62   63 2   
    66   62   72 1   
    67   64   65 1   
    68   64   70 1   
    69   64   71 1   
    70   65   66 1   
    71   65   67 1   
    72   72   73 1   
    73   72   76 1   
    74   73   74 1   
    75   73   77 1   
    76   73   78 1   
    77   74   75 2   
    78   74   79 1   
    79   79   80 1   
    80   79   86 1   
    81   80   81 1   
    82   80   83 1   
    83   80   87 1   
    84   81   82 2   
    85   81   93 1   
    86   83   84 1   
    87   83   85 1   
    88   83   88 1   
    89   84   90 1   
    90   84   91 1   
    91   84   92 1   
    92   85   89 1   
    93   93   94 1   
    94   93  101 1   
    95   94   95 1   
    96   94   97 1   
    97   94  102 1   
    98   95   96 2   
    99   95  112 1   
   100   97   98 1   
   101   97   99 1   
   102   97  103 1   
   103   98  100 1   
   104   98  104 1   
   105   98  105 1   
   106   99  106 1   
   107   99  107 1   
   108   99  108 1   
   109  100  109 1   
   110  100  110 1   
   111  100  111 1   
   112  112  113 1   
   113  112  119 1   
   114  113  114 1   
   115  113  116 1   
   116  113  120 1   
   117  114  115 2   
   118  114  126 1   
   119  116  117 1   
   120  116  118 1   
   121  116  121 1   
   122  117  123 1   
   123  117  124 1   
   124  117  125 1   
   125  118  122 1   
   126  126  127 1   
   127  126  133 1   
   128  127  128 1   
   129  127  130 1   
   130  127  134 1   
   131  128  129 2   
   132  128  140 1   
   133  130  131 1   
   134  130  132 1   
   135  130  135 1   
   136  131  137 1   
   137  131  138 1   
   138  131  139 1   
   139  132  136 1   
   140  140  141 1   
   141  140  149 1   
   142  141  142 1   
   143  141  144 1   
   144  141  150 1   
   145  142  143 2   
   146  142  162 1   
   147  144  145 1   
   148  144  151 1   
   149  144  152 1   
   150  145  146 1   
   151  145  153 1   
   152  145  154 1   
   153  146  147 1   
   154  146  155 1   
   155  146  156 1   
   156  147  148 1   
   157  147  157 1   
   158  147  158 1   
   159  148  159 1   
   160  148  160 1   
   161  148  161 1   
   162  162  163 1   
   163  162  171 1   
   164  163  164 1   
   165  163  166 1   
   166  163  172 1   
   167  164  165 2   
   168  164  177 1   
   169  166  167 1   
   170  166  173 1   
   171  166  174 1   
   172  167  168 1   
   173  167  175 1   
   174  167  176 1   
   175  168  169 1   
   176  168  170 1   
   177  177  178 1   
   178  177  182 1   
   179  178  179 1   
   180  178  180 1   
   181  178  181 1   
   182  184  185 1   
   183  184  186 1   
   184  187  188 1   
   185  187  189 1   
   186  190  191 1   
   187  190  192 1   
@<TRIPOS>SUBSTRUCTURE
     1 MOL         1 TEMP              0 ****  ****    0 ROOT
