@<TRIPOS>MOLECULE
MOL
  186   183     1     0     0
SMALL
resp


@<TRIPOS>ATOM
      1 C1          8.9670    0.7310    1.9810 c3        1 MOL     -0.445938
      2 C2          7.8370    0.3610    1.0010 c         1 MOL      0.791094
      3 O1          6.6610    0.2070    1.3300 o         1 MOL     -0.672747
      4 H1          9.8310    0.0910    1.7980 hc        1 MOL      0.113802
      5 H2          9.2510    1.7740    1.8330 hc        1 MOL      0.113802
      6 H3          8.6210    0.5900    3.0050 hc        1 MOL      0.113802
      7 N1          8.1510    0.2650   -0.3320 n         1 MOL     -0.660599
      8 C3          7.1390    0.3530   -1.3520 c3        1 MOL      0.053906
      9 C4          6.4000   -0.9680   -1.5850 c         1 MOL      0.622240
     10 O2          5.7130   -1.1800   -2.5960 o         1 MOL     -0.434039
     11 C5          7.8830    0.7250   -2.6990 c3        1 MOL     -0.464100
     12 C6          8.9070   -0.2480   -3.2640 c         1 MOL      0.763090
     13 O3          9.2720   -1.1510   -2.5500 o         1 MOL     -0.648577
     14 O4          9.2820   -0.1930   -4.4550 o         1 MOL     -0.648577
     15 H4          9.1230    0.5020   -0.5170 hn        1 MOL      0.349888
     16 H5          6.4460    1.1570   -1.1140 h1        1 MOL      0.141557
     17 H6          8.3210    1.7170   -2.6430 hc        1 MOL      0.142370
     18 H7          7.1410    0.7640   -3.4870 hc        1 MOL      0.142370
     19 N2          6.4150   -1.9110   -0.5710 n         1 MOL     -0.405773
     20 C7          5.9230   -3.2960   -0.6410 c3        1 MOL      0.058141
     21 C8          4.4790   -3.3320   -1.1750 c         1 MOL      0.426168
     22 O5          4.2310   -4.1590   -2.0620 o         1 MOL     -0.518729
     23 C9          6.1600   -4.0860    0.6780 c3        1 MOL     -0.040498
     24 C10         7.5360   -3.8080    1.2490 c3        1 MOL     -0.052282
     25 C11         7.7590   -4.4820    2.6480 c3        1 MOL      0.100086
     26 C12         9.1750   -4.1770    3.1730 c3        1 MOL     -0.006175
     27 N3          9.4080   -4.8440    4.4550 n4        1 MOL     -0.142710
     28 H8          6.7690   -1.5220    0.2950 hn        1 MOL      0.155676
     29 H9          6.4490   -3.8110   -1.4540 h1        1 MOL      0.090848
     30 H10         5.9540   -5.1450    0.5260 hc        1 MOL      0.040559
     31 H11         5.4830   -3.7500    1.4620 hc        1 MOL      0.040559
     32 H12         7.7560   -2.7510    1.3990 hc        1 MOL      0.033765
     33 H13         8.3390   -4.2420    0.6660 hc        1 MOL      0.033765
     34 H14         7.5900   -5.5510    2.5870 hc        1 MOL     -0.010913
     35 H15         6.9860   -4.1180    3.3200 hc        1 MOL     -0.010913
     36 H16         9.3820   -3.1180    3.3250 hx        1 MOL      0.074211
     37 H17         9.8540   -4.6190    2.4440 hx        1 MOL      0.074211
     38 H18        10.1620   -4.4850    5.0240 hn        1 MOL      0.212007
     39 H19         8.6450   -4.6020    5.0780 hn        1 MOL      0.212007
     40 H20         9.4270   -5.8520    4.4170 hn        1 MOL      0.212007
     41 N4          3.5710   -2.3880   -0.7580 n         1 MOL     -0.157265
     42 C13         3.5440   -1.6430    0.4490 c3        1 MOL     -0.352569
     43 C14         3.2580   -0.1500    0.1170 c         1 MOL      0.318762
     44 O6          2.6660    0.0560   -0.9810 o         1 MOL     -0.452748
     45 C15         2.5330   -2.1710    1.4160 c3        1 MOL     -0.159140
     46 C16         1.1380   -2.5140    0.8630 c         1 MOL      0.782912
     47 O7          0.8450   -1.8780   -0.1580 o         1 MOL     -0.704779
     48 O8          0.3110   -3.2460    1.4340 o         1 MOL     -0.704779
     49 H21         2.9130   -2.1720   -1.4810 hn        1 MOL      0.258536
     50 H22         4.4670   -1.7130    1.0290 h1        1 MOL      0.242742
     51 H23         2.4740   -1.4510    2.2270 hc        1 MOL      0.025254
     52 H24         3.0110   -3.0550    1.8400 hc        1 MOL      0.025254
     53 N5          3.6540    0.7840    1.0050 n         1 MOL     -0.142094
     54 C17         3.5710    2.2670    0.6980 c3        1 MOL      0.050525
     55 C18         2.3730    2.8110   -0.0630 c         1 MOL      0.414484
     56 O9          1.2670    2.3560   -0.0310 o         1 MOL     -0.529825
     57 H25         4.2550    0.4370    1.7330 hn        1 MOL      0.226535
     58 H26         4.5370    2.4790    0.2230 h1        1 MOL      0.049465
     59 H27         3.6280    2.8020    1.6430 h1        1 MOL      0.049465
     60 N6          2.6520    3.8260   -0.8290 n         1 MOL     -0.289619
     61 C19         1.7370    4.5840   -1.6410 c3        1 MOL      0.312368
     62 C20         2.0190    6.0830   -1.4470 c         1 MOL      0.291592
     63 O10         3.2080    6.4600   -1.4290 o         1 MOL     -0.501105
     64 C21         1.7400    4.1280   -3.1630 c3        1 MOL     -0.234042
     65 C22         1.8340    2.6160   -3.3750 c         1 MOL      0.710030
     66 O11         2.9650    2.1430   -3.6720 o         1 MOL     -0.696891
     67 O12         0.7550    1.8930   -3.2160 o         1 MOL     -0.696891
     68 H28         3.6060    4.1490   -0.8160 hn        1 MOL      0.224010
     69 H29         0.7430    4.3800   -1.2360 h1        1 MOL     -0.119664
     70 H30         2.6220    4.5830   -3.6000 hc        1 MOL      0.063691
     71 H31         0.8250    4.5540   -3.5790 hc        1 MOL      0.063691
     72 N7          0.9790    6.9230   -1.2790 n         1 MOL     -0.278439
     73 C23        -0.4520    6.6250   -1.4230 c3        1 MOL     -0.180207
     74 C24        -0.9480    5.9120   -0.2080 c         1 MOL      0.630031
     75 O13        -0.5910    6.2490    0.9290 o         1 MOL     -0.568673
     76 H32         1.2310    7.8810   -1.0630 hn        1 MOL      0.275661
     77 H33        -0.6460    6.2650   -2.4280 h1        1 MOL      0.115963
     78 H34        -1.0320    7.5470   -1.5110 h1        1 MOL      0.115963
     79 N8         -1.8580    4.9360   -0.3340 n         1 MOL     -0.463025
     80 C25        -2.7990    4.4880    0.7360 c3        1 MOL      0.237080
     81 C26        -2.4480    3.1610    1.4220 c         1 MOL      0.281042
     82 O14        -3.2320    2.2100    1.4380 o         1 MOL     -0.395628
     83 C27        -4.2560    4.5630    0.2370 c3        1 MOL      0.295259
     84 C28        -4.8920    3.5330   -0.6630 c3        1 MOL     -0.302478
     85 O15        -4.6140    5.8060   -0.3100 oh        1 MOL     -0.677432
     86 H35        -2.0850    4.6730   -1.2770 hn        1 MOL      0.289564
     87 H36        -2.7240    5.0990    1.6350 h1        1 MOL      0.044505
     88 H37        -4.8290    4.5370    1.1600 h1        1 MOL     -0.007430
     89 H38        -5.5640    5.8030   -0.4750 ho        1 MOL      0.424499
     90 H39        -4.6150    2.4980   -0.4810 hc        1 MOL      0.074982
     91 H40        -5.9730    3.5840   -0.5820 hc        1 MOL      0.074982
     92 H41        -4.6310    3.7000   -1.7040 hc        1 MOL      0.074982
     93 N9         -1.2450    3.1480    2.0180 n         1 MOL     -0.380727
     94 C29        -0.7150    2.1330    2.9140 c3        1 MOL      0.045489
     95 C30        -0.8990    0.7170    2.2940 c         1 MOL      0.242237
     96 O16        -0.4570    0.3910    1.1840 o         1 MOL     -0.340148
     97 C31         0.7420    2.2750    3.3280 c3        1 MOL      0.134924
     98 C32         0.9990    3.6410    4.0100 c3        1 MOL     -0.100173
     99 C33         1.1790    1.1580    4.1900 c3        1 MOL     -0.408861
    100 C34         0.5950    3.8630    5.5070 c3        1 MOL     -0.142215
    101 H42        -0.6340    3.9180    1.7890 hn        1 MOL      0.357411
    102 H43        -1.2880    2.1770    3.8330 h1        1 MOL      0.072832
    103 H44         1.3690    2.2340    2.4390 hc        1 MOL     -0.054355
    104 H45         0.5140    4.4010    3.3960 hc        1 MOL      0.050296
    105 H46         2.0610    3.8780    3.9260 hc        1 MOL      0.050296
    106 H47         2.1720    1.3200    4.5990 hc        1 MOL      0.111421
    107 H48         0.4450    1.0960    4.9910 hc        1 MOL      0.111421
    108 H49         1.1290    0.2030    3.6700 hc        1 MOL      0.111421
    109 H50        -0.3920    3.4440    5.6740 hc        1 MOL      0.041009
    110 H51         1.3090    3.3350    6.1440 hc        1 MOL      0.041009
    111 H52         0.5450    4.9290    5.7220 hc        1 MOL      0.041009
    112 N10        -1.6640   -0.0850    3.0380 n         1 MOL     -0.083335
    113 C35        -2.1470   -1.4300    2.7460 c3        1 MOL     -0.171029
    114 C36        -3.6510   -1.4500    2.3730 c         1 MOL      0.592231
    115 O17        -4.1330   -2.5320    2.0150 o         1 MOL     -0.628235
    116 C37        -1.6780   -2.4470    3.8080 c3        1 MOL      0.429027
    117 C38        -2.2470   -2.0410    5.1740 c3        1 MOL     -0.363993
    118 O18        -0.2850   -2.4730    3.9320 oh        1 MOL     -0.597750
    119 H53        -2.0390    0.3560    3.8650 hn        1 MOL      0.173703
    120 H54        -1.6100   -1.6680    1.8270 h1        1 MOL      0.128123
    121 H55        -2.0740   -3.4040    3.4500 h1        1 MOL      0.001083
    122 H56         0.0580   -2.5510    3.0360 ho        1 MOL      0.335025
    123 H57        -3.3260   -1.9170    5.0680 hc        1 MOL      0.077191
    124 H58        -1.9090   -2.7310    5.9430 hc        1 MOL      0.077191
    125 H59        -1.7060   -1.1160    5.3790 hc        1 MOL      0.077191
    126 N11        -4.3080   -0.3290    2.1000 n         1 MOL     -0.278552
    127 C39        -5.7140   -0.2840    1.6390 c3        1 MOL     -0.016334
    128 C40        -5.8340   -0.7490    0.1870 c         1 MOL      0.559031
    129 O19        -5.1820   -0.2270   -0.6620 o         1 MOL     -0.505069
    130 C41        -6.3100    1.1160    1.7650 c3        1 MOL      0.391773
    131 C42        -7.8090    1.1870    1.4710 c3        1 MOL     -0.376489
    132 O20        -6.2210    1.4640    3.1180 oh        1 MOL     -0.642660
    133 H60        -3.9300    0.5980    2.1880 hn        1 MOL      0.122064
    134 H61        -6.3700   -0.9580    2.2110 h1        1 MOL      0.048660
    135 H62        -5.8350    1.9280    1.2280 h1        1 MOL     -0.008133
    136 H63        -6.5530    2.3670    3.1560 ho        1 MOL      0.391053
    137 H64        -8.2520    0.3960    2.0800 hc        1 MOL      0.085646
    138 H65        -8.3500    2.1060    1.6700 hc        1 MOL      0.085646
    139 H66        -7.8910    0.9100    0.4260 hc        1 MOL      0.085646
    140 N12        -6.6880   -1.7530    0.0130 n         1 MOL     -0.337546
    141 C43        -7.1110   -2.4520   -1.2320 c3        1 MOL      0.138092
    142 C44        -6.0020   -2.8200   -2.2190 c         1 MOL      0.481451
    143 O21        -6.0770   -2.6490   -3.4520 o         1 MOL     -0.479994
    144 C45        -8.2390   -1.6580   -1.8750 c3        1 MOL     -0.298231
    145 C46        -9.5860   -1.6320   -1.0740 c3        1 MOL      0.019879
    146 C47       -10.3020   -2.9310   -0.8030 c3        1 MOL      0.055964
    147 C48       -11.6880   -2.7650   -0.1690 c3        1 MOL     -0.159821
    148 N13       -12.3200   -4.1470   -0.3470 n4        1 MOL     -0.046774
    149 H67        -7.1250   -2.0850    0.8590 hn        1 MOL      0.237647
    150 H68        -7.6390   -3.3330   -0.8490 h1        1 MOL      0.009044
    151 H69        -8.5270   -2.1770   -2.7880 hc        1 MOL      0.121262
    152 H70        -8.0030   -0.6180   -2.0780 hc        1 MOL      0.121262
    153 H71       -10.2460   -0.9620   -1.6250 hc        1 MOL      0.005268
    154 H72        -9.3710   -1.1660   -0.1140 hc        1 MOL      0.005268
    155 H73        -9.6190   -3.5150   -0.1860 hc        1 MOL      0.021608
    156 H74       -10.3860   -3.4420   -1.7580 hc        1 MOL      0.021608
    157 H75       -12.2650   -2.0680   -0.7800 hx        1 MOL      0.126804
    158 H76       -11.5110   -2.4610    0.8690 hx        1 MOL      0.126804
    159 H77       -12.4850   -4.4240   -1.3000 hn        1 MOL      0.201808
    160 H78       -11.8120   -4.9000    0.0840 hn        1 MOL      0.201808
    161 H79       -13.2560   -4.2250    0.0070 hn        1 MOL      0.201808
    162 N14        -4.8280   -3.1830   -1.6000 n         1 MOL     -0.705343
    163 C49        -3.5510   -2.7550   -2.2580 c3        1 MOL      0.615361
    164 C50        -2.4360   -2.4260   -1.1860 c         1 MOL      0.023089
    165 O22        -1.9740   -1.3450   -1.0740 o         1 MOL     -0.503284
    166 C51        -3.0270   -3.6000   -3.4630 c3        1 MOL     -0.208313
    167 C52        -1.5650   -3.3180   -3.9210 c3        1 MOL      0.032762
    168 C53        -1.3010   -1.8200   -4.1480 c         1 MOL      0.630744
    169 O23        -2.0380   -1.1890   -4.9040 o         1 MOL     -0.642963
    170 O24        -0.3840   -1.3240   -3.4050 o         1 MOL     -0.642963
    171 H80        -4.8350   -3.1530   -0.5950 hn        1 MOL      0.314973
    172 H81        -3.7230   -1.7590   -2.6790 h1        1 MOL      0.030165
    173 H82        -3.7160   -3.4280   -4.2980 hc        1 MOL      0.041363
    174 H83        -3.1330   -4.6560   -3.2320 hc        1 MOL      0.041363
    175 H84        -1.3650   -3.9140   -4.8100 hc        1 MOL     -0.000430
    176 H85        -0.8150   -3.7500   -3.2480 hc        1 MOL     -0.000430
    177 N15        -2.0020   -3.4100   -0.4100 n         1 MOL     -0.026525
    178 C54        -2.2390   -4.8840   -0.4890 c3        1 MOL     -0.272624
    179 H86        -1.2860   -5.4090   -0.4270 h1        1 MOL      0.096343
    180 H87        -2.8790   -5.1950    0.3370 h1        1 MOL      0.096343
    181 H88        -2.7250   -5.1250   -1.4360 h1        1 MOL      0.096343
    182 H89        -1.3640   -3.0930    0.3110 hn        1 MOL      0.262176
    183 Ca1         0.0690    0.2300   -1.3390 Ca        1 MOL      1.633406
    184 O25        -2.2090    1.4980   -1.2090 oh        1 MOL     -0.939835
    185 H90        -2.8620    1.5650   -0.5130 ho        1 MOL      0.450896
    186 H91        -2.7210    1.3600   -2.0070 ho        1 MOL      0.450896
@<TRIPOS>BOND
     1    1    2 1   
     2    1    4 1   
     3    1    5 1   
     4    1    6 1   
     5    2    3 2   
     6    2    7 1   
     7    7    8 1   
     8    7   15 1   
     9    8    9 1   
    10    8   11 1   
    11    8   16 1   
    12    9   10 2   
    13    9   19 1   
    14   11   12 1   
    15   11   17 1   
    16   11   18 1   
    17   12   13 1   
    18   12   14 1   
    19   19   20 1   
    20   19   28 1   
    21   20   21 1   
    22   20   23 1   
    23   20   29 1   
    24   21   22 2   
    25   21   41 1   
    26   23   24 1   
    27   23   30 1   
    28   23   31 1   
    29   24   25 1   
    30   24   32 1   
    31   24   33 1   
    32   25   26 1   
    33   25   34 1   
    34   25   35 1   
    35   26   27 1   
    36   26   36 1   
    37   26   37 1   
    38   27   38 1   
    39   27   39 1   
    40   27   40 1   
    41   41   42 1   
    42   41   49 1   
    43   42   43 1   
    44   42   45 1   
    45   42   50 1   
    46   43   44 2   
    47   43   53 1   
    48   45   46 1   
    49   45   51 1   
    50   45   52 1   
    51   46   47 1   
    52   46   48 1   
    53   53   54 1   
    54   53   57 1   
    55   54   55 1   
    56   54   58 1   
    57   54   59 1   
    58   55   56 2   
    59   55   60 1   
    60   60   61 1   
    61   60   68 1   
    62   61   62 1   
    63   61   64 1   
    64   61   69 1   
    65   62   63 2   
    66   62   72 1   
    67   64   65 1   
    68   64   70 1   
    69   64   71 1   
    70   65   66 1   
    71   65   67 1   
    72   72   73 1   
    73   72   76 1   
    74   73   74 1   
    75   73   77 1   
    76   73   78 1   
    77   74   75 2   
    78   74   79 1   
    79   79   80 1   
    80   79   86 1   
    81   80   81 1   
    82   80   83 1   
    83   80   87 1   
    84   81   82 2   
    85   81   93 1   
    86   83   84 1   
    87   83   85 1   
    88   83   88 1   
    89   84   90 1   
    90   84   91 1   
    91   84   92 1   
    92   85   89 1   
    93   93   94 1   
    94   93  101 1   
    95   94   95 1   
    96   94   97 1   
    97   94  102 1   
    98   95   96 2   
    99   95  112 1   
   100   97   98 1   
   101   97   99 1   
   102   97  103 1   
   103   98  100 1   
   104   98  104 1   
   105   98  105 1   
   106   99  106 1   
   107   99  107 1   
   108   99  108 1   
   109  100  109 1   
   110  100  110 1   
   111  100  111 1   
   112  112  113 1   
   113  112  119 1   
   114  113  114 1   
   115  113  116 1   
   116  113  120 1   
   117  114  115 2   
   118  114  126 1   
   119  116  117 1   
   120  116  118 1   
   121  116  121 1   
   122  117  123 1   
   123  117  124 1   
   124  117  125 1   
   125  118  122 1   
   126  126  127 1   
   127  126  133 1   
   128  127  128 1   
   129  127  130 1   
   130  127  134 1   
   131  128  129 2   
   132  128  140 1   
   133  130  131 1   
   134  130  132 1   
   135  130  135 1   
   136  131  137 1   
   137  131  138 1   
   138  131  139 1   
   139  132  136 1   
   140  140  141 1   
   141  140  149 1   
   142  141  142 1   
   143  141  144 1   
   144  141  150 1   
   145  142  143 2   
   146  142  162 1   
   147  144  145 1   
   148  144  151 1   
   149  144  152 1   
   150  145  146 1   
   151  145  153 1   
   152  145  154 1   
   153  146  147 1   
   154  146  155 1   
   155  146  156 1   
   156  147  148 1   
   157  147  157 1   
   158  147  158 1   
   159  148  159 1   
   160  148  160 1   
   161  148  161 1   
   162  162  163 1   
   163  162  171 1   
   164  163  164 1   
   165  163  166 1   
   166  163  172 1   
   167  164  165 2   
   168  164  177 1   
   169  166  167 1   
   170  166  173 1   
   171  166  174 1   
   172  167  168 1   
   173  167  175 1   
   174  167  176 1   
   175  168  169 1   
   176  168  170 1   
   177  177  178 1   
   178  177  182 1   
   179  178  179 1   
   180  178  180 1   
   181  178  181 1   
   182  184  185 1   
   183  184  186 1   
@<TRIPOS>SUBSTRUCTURE
     1 MOL         1 TEMP              0 ****  ****    0 ROOT
