@<TRIPOS>MOLECULE
MOL
  198   191     1     0     0
SMALL
resp


@<TRIPOS>ATOM
      1 C1          2.3190   10.2760    4.8760 c3        1 MOL     -0.424664
      2 C2          1.5380    9.9000    3.5650 c         1 MOL      0.677019
      3 O1          0.5670   10.5010    3.1310 o         1 MOL     -0.556718
      4 H1          2.5120   11.3480    4.8870 hc        1 MOL      0.103455
      5 H2          1.7220   10.0050    5.7460 hc        1 MOL      0.103455
      6 H3          3.2660    9.7360    4.9030 hc        1 MOL      0.103455
      7 N1          2.0780    8.9250    2.9090 n         1 MOL     -0.504760
      8 C3          1.4620    8.3610    1.6120 c3        1 MOL      0.182069
      9 C4          1.2880    6.8680    1.5170 c         1 MOL      0.482895
     10 O2          1.9720    6.1660    2.3470 o         1 MOL     -0.558714
     11 C5          2.1640    8.7950    0.3470 c3        1 MOL     -0.177581
     12 C6          2.3190   10.3320    0.2570 c         1 MOL      0.714274
     13 O3          3.2600   10.8540    0.8160 o         1 MOL     -0.701380
     14 O4          1.4360   10.9540   -0.3330 o         1 MOL     -0.701380
     15 H4          2.8370    8.4100    3.3540 hn        1 MOL      0.289328
     16 H5          0.4440    8.7390    1.5210 h1        1 MOL      0.040418
     17 H6          1.6860    8.3970   -0.5530 hc        1 MOL      0.005979
     18 H7          3.1790    8.4030    0.2940 hc        1 MOL      0.005979
     19 N2          0.3070    6.3260    0.7520 n         1 MOL     -0.538507
     20 C7         -0.1600    4.9320    0.9290 c3        1 MOL     -0.026834
     21 C8         -0.9190    4.5240   -0.3550 c         1 MOL      0.528609
     22 O5         -1.8890    5.2650   -0.7640 o         1 MOL     -0.534396
     23 C9         -1.0820    4.9460    2.1150 c3        1 MOL     -0.084993
     24 C10        -1.7470    3.5650    2.3890 c3        1 MOL      0.036599
     25 C11        -3.2090    3.4610    1.7810 c3        1 MOL     -0.019006
     26 C12        -3.7750    2.0890    2.0640 c3        1 MOL      0.004878
     27 N3         -5.0600    1.9260    1.5190 n4        1 MOL     -0.286134
     28 H8         -0.0410    6.7670   -0.0920 hn        1 MOL      0.346362
     29 H9          0.7060    4.2840    1.0720 h1        1 MOL      0.073288
     30 H10        -1.8750    5.6740    1.9150 hc        1 MOL      0.074271
     31 H11        -0.5950    5.2560    3.0350 hc        1 MOL      0.074271
     32 H12        -1.8750    3.5090    3.4740 hc        1 MOL     -0.003719
     33 H13        -1.3050    2.6260    2.0590 hc        1 MOL     -0.003719
     34 H14        -3.1840    3.6250    0.6900 hc        1 MOL      0.021894
     35 H15        -3.8040    4.1850    2.3300 hc        1 MOL      0.021894
     36 H16        -3.8450    2.0190    3.1540 hx        1 MOL      0.069454
     37 H17        -3.0470    1.3890    1.6590 hx        1 MOL      0.069454
     38 H18        -5.2560    2.4850    0.7030 hn        1 MOL      0.297683
     39 H19        -5.0370    0.9320    1.3440 hn        1 MOL      0.297683
     40 H20        -5.7720    2.2550    2.1520 hn        1 MOL      0.297683
     41 N4         -0.5460    3.3190   -0.8550 n         1 MOL     -0.376077
     42 C13        -1.2530    2.6290   -1.9100 c3        1 MOL      0.191954
     43 C14        -1.6430    1.2260   -1.4360 c         1 MOL      0.425933
     44 O6         -1.1040    0.6540   -0.4670 o         1 MOL     -0.478834
     45 C15        -0.5140    2.6760   -3.2070 c3        1 MOL     -0.288521
     46 C16         0.9980    2.4260   -3.1230 c         1 MOL      0.611986
     47 O7          1.4820    1.3820   -2.6870 o         1 MOL     -0.680094
     48 O8          1.7770    3.2580   -3.6360 o         1 MOL     -0.680094
     49 H21         0.2210    2.9410   -0.3090 hn        1 MOL      0.264581
     50 H22        -2.1920    3.1580   -2.0680 h1        1 MOL      0.069520
     51 H23        -0.6600    3.6960   -3.5980 hc        1 MOL      0.085481
     52 H24        -0.9640    1.9860   -3.9210 hc        1 MOL      0.085481
     53 N5         -2.7190    0.6380   -2.0300 n         1 MOL     -0.408036
     54 C17        -3.6910    1.1520   -2.9860 c3        1 MOL     -0.070406
     55 C18        -5.1160    0.8130   -2.4740 c         1 MOL      0.587572
     56 O9         -5.3760    0.7310   -1.2680 o         1 MOL     -0.561599
     57 H25        -2.8160   -0.3330   -1.7700 hn        1 MOL      0.278082
     58 H26        -3.6150    0.7200   -3.9870 h1        1 MOL      0.064810
     59 H27        -3.7690    2.2110   -3.2090 h1        1 MOL      0.064810
     60 N6         -5.9620    0.5670   -3.4690 n         1 MOL     -0.375779
     61 C19        -7.3000   -0.0950   -3.1640 c3        1 MOL     -0.183547
     62 C20        -7.1990   -1.5920   -2.6610 c         1 MOL      0.562929
     63 O10        -8.0800   -2.1120   -1.9660 o         1 MOL     -0.481934
     64 C21        -8.2210    0.0460   -4.3940 c3        1 MOL     -0.001910
     65 C22        -9.6790   -0.1220   -3.9880 c         1 MOL      0.641171
     66 O11       -10.4110   -0.9320   -4.6310 o         1 MOL     -0.606596
     67 O12       -10.1950    0.7370   -3.2190 o         1 MOL     -0.606596
     68 H28        -5.5670    0.6280   -4.3980 hn        1 MOL      0.252408
     69 H29        -7.6920    0.4360   -2.2930 h1        1 MOL      0.128752
     70 H30        -7.9910   -0.6720   -5.1920 hc        1 MOL      0.013220
     71 H31        -8.1850    1.0700   -4.7530 hc        1 MOL      0.013220
     72 N7         -6.0360   -2.2110   -2.7990 n         1 MOL     -0.275723
     73 C23        -5.7570   -3.6040   -2.4190 c3        1 MOL     -0.307917
     74 C24        -5.7170   -3.9610   -0.9810 c         1 MOL      0.628295
     75 O13        -5.6590   -5.1320   -0.6830 o         1 MOL     -0.573156
     76 H32        -5.2940   -1.6530   -3.1810 hn        1 MOL      0.212300
     77 H33        -4.8150   -3.9780   -2.8260 h1        1 MOL      0.145430
     78 H34        -6.5410   -4.1960   -2.9090 h1        1 MOL      0.145430
     79 N8         -5.7420   -2.9810   -0.1010 n         1 MOL     -0.236333
     80 C25        -5.6870   -3.1600    1.3760 c3        1 MOL      0.096068
     81 C26        -4.7480   -2.1400    1.9970 c         1 MOL      0.129877
     82 O14        -4.7680   -0.9650    1.6210 o         1 MOL     -0.440227
     83 C27        -7.0000   -3.0790    2.0880 c3        1 MOL      0.231912
     84 C28        -7.7170   -1.7560    1.8560 c3        1 MOL     -0.091792
     85 O15        -7.8570   -4.1010    1.6690 oh        1 MOL     -0.532212
     86 H35        -5.8990   -2.0720   -0.5000 hn        1 MOL      0.145680
     87 H36        -5.2530   -4.1230    1.6450 h1        1 MOL      0.005314
     88 H37        -6.7880   -3.0350    3.1490 h1        1 MOL     -0.035320
     89 H38        -7.5280   -4.9080    2.0760 ho        1 MOL      0.369296
     90 H39        -7.1900   -0.9470    2.3670 hc        1 MOL      0.040093
     91 H40        -7.6800   -1.4080    0.8170 hc        1 MOL      0.040093
     92 H41        -8.7690   -1.7310    2.1060 hc        1 MOL      0.040093
     93 N9         -4.0540   -2.5060    3.0790 n         1 MOL      0.269554
     94 C29        -3.0130   -1.5940    3.5420 c3        1 MOL     -0.072286
     95 C30        -1.7820   -1.8620    2.6990 c         1 MOL      0.542536
     96 O16        -1.0890   -0.9200    2.3710 o         1 MOL     -0.474985
     97 C31        -2.6630   -1.7070    5.0270 c3        1 MOL      0.038696
     98 C32        -3.9560   -1.6270    5.8150 c3        1 MOL     -0.131534
     99 C33        -1.7920   -0.5030    5.5220 c3        1 MOL     -0.232483
    100 C34        -5.0770   -0.6000    5.5300 c3        1 MOL     -0.392793
    101 H42        -4.2630   -3.3590    3.5750 hn        1 MOL      0.120037
    102 H43        -3.4850   -0.6170    3.5070 h1        1 MOL     -0.024888
    103 H44        -2.2040   -2.6830    5.1200 hc        1 MOL     -0.002025
    104 H45        -3.6800   -1.5060    6.8650 hc        1 MOL      0.060156
    105 H46        -4.5070   -2.5580    5.6790 hc        1 MOL      0.060156
    106 H47        -0.9050   -0.3540    4.8970 hc        1 MOL      0.090096
    107 H48        -2.4100    0.4000    5.4370 hc        1 MOL      0.090096
    108 H49        -1.4190   -0.6800    6.5390 hc        1 MOL      0.090096
    109 H50        -5.3550   -0.6560    4.4790 hc        1 MOL      0.117533
    110 H51        -5.9430   -0.7620    6.1740 hc        1 MOL      0.117533
    111 H52        -4.6360    0.3770    5.7440 hc        1 MOL      0.117533
    112 N10        -1.4780   -3.0850    2.3280 n         1 MOL     -0.360581
    113 C35        -0.5580   -3.5890    1.2950 c3        1 MOL      0.011523
    114 C36         0.1720   -4.9250    1.7130 c         1 MOL      0.555395
    115 O17        -0.2430   -5.5850    2.6270 o         1 MOL     -0.512884
    116 C37        -1.2960   -3.7810   -0.0730 c3        1 MOL      0.346565
    117 C38        -2.3440   -4.9020   -0.1090 c3        1 MOL     -0.159099
    118 O18        -1.9060   -2.6350   -0.4740 oh        1 MOL     -0.652543
    119 H53        -2.0550   -3.8430    2.6660 hn        1 MOL      0.161737
    120 H54         0.2030   -2.8390    1.0960 h1        1 MOL      0.062147
    121 H55        -0.6390   -4.1690   -0.8480 h1        1 MOL     -0.023359
    122 H56        -2.0120   -2.6000   -1.4350 ho        1 MOL      0.417325
    123 H57        -2.8040   -4.9890    0.8730 hc        1 MOL      0.028397
    124 H58        -3.1610   -4.8290   -0.8190 hc        1 MOL      0.028397
    125 H59        -1.7930   -5.8320   -0.2730 hc        1 MOL      0.028397
    126 N11         1.3180   -5.2530    1.1420 n         1 MOL     -0.437960
    127 C39         2.1950   -6.3750    1.4740 c3        1 MOL      0.036821
    128 C40         3.5980   -5.8930    1.5730 c         1 MOL      0.722031
    129 O19         4.2630   -6.2500    2.5190 o         1 MOL     -0.579991
    130 C41         2.1270   -7.5490    0.4460 c3        1 MOL      0.230060
    131 C42         3.2160   -8.6740    0.5400 c3        1 MOL     -0.389585
    132 O20         2.3940   -7.0940   -0.8520 oh        1 MOL     -0.640411
    133 H60         1.5850   -4.7150    0.3270 hn        1 MOL      0.207660
    134 H61         1.9420   -6.7970    2.4440 h1        1 MOL      0.097998
    135 H62         1.1300   -7.9950    0.4740 h1        1 MOL      0.068252
    136 H63         2.3620   -7.8910   -1.3960 ho        1 MOL      0.417013
    137 H64         3.0510   -9.4950   -0.1480 hc        1 MOL      0.104183
    138 H65         4.2400   -8.3860    0.2980 hc        1 MOL      0.104183
    139 H66         3.2770   -9.1190    1.5340 hc        1 MOL      0.104183
    140 N12         3.9830   -5.0620    0.5800 n         1 MOL     -0.691618
    141 C43         5.2880   -4.3730    0.5130 c3        1 MOL      0.125071
    142 C44         5.1980   -2.9750   -0.1060 c         1 MOL      0.420432
    143 O21         4.3310   -2.8120   -0.9870 o         1 MOL     -0.566262
    144 C45         6.2100   -5.3050   -0.3210 c3        1 MOL     -0.270507
    145 C46         6.8240   -6.4100    0.5400 c3        1 MOL      0.001659
    146 C47         7.8000   -7.2550   -0.3040 c3        1 MOL      0.017061
    147 C48         8.5230   -8.2950    0.4850 c3        1 MOL     -0.012115
    148 N13         9.2770   -9.2890   -0.3410 n4        1 MOL     -0.092536
    149 H67         3.3070   -4.9680   -0.1540 hn        1 MOL      0.408283
    150 H68         5.7210   -4.1740    1.4900 h1        1 MOL      0.089755
    151 H69         6.9340   -4.6730   -0.8130 hc        1 MOL      0.099779
    152 H70         5.6020   -5.8260   -1.0710 hc        1 MOL      0.099779
    153 H71         6.0030   -7.0660    0.8510 hc        1 MOL      0.044114
    154 H72         7.2500   -5.9110    1.4040 hc        1 MOL      0.044114
    155 H73         8.5740   -6.6510   -0.7640 hc        1 MOL      0.019795
    156 H74         7.2020   -7.7350   -1.0890 hc        1 MOL      0.019795
    157 H75         7.7740   -8.8790    1.0220 hx        1 MOL      0.075929
    158 H76         9.2070   -7.7630    1.1410 hx        1 MOL      0.075929
    159 H77         9.9490   -8.8040   -0.9240 hn        1 MOL      0.194427
    160 H78         9.6990   -9.9890    0.2390 hn        1 MOL      0.194427
    161 H79         8.7670   -9.8460   -1.0100 hn        1 MOL      0.194427
    162 N14         5.8970   -1.9570    0.4430 n         1 MOL     -0.037554
    163 C49         5.8030   -0.5920    0.0690 c3        1 MOL     -0.115811
    164 C50         4.2750   -0.1700    0.0720 c         1 MOL      0.763988
    165 O22         3.8570    0.5120   -0.8580 o         1 MOL     -0.739788
    166 C51         6.7260    0.1920    0.9690 c3        1 MOL     -0.171108
    167 C52         6.8620    1.6300    0.6310 c3        1 MOL     -0.036888
    168 C53         7.0810    1.9200   -0.8050 c         1 MOL      0.723850
    169 O23         6.1280    2.2080   -1.5460 o         1 MOL     -0.705184
    170 O24         8.2360    2.0640   -1.2470 o         1 MOL     -0.705184
    171 H80         6.6410   -2.2690    1.0500 hn        1 MOL      0.154314
    172 H81         6.1600   -0.6270   -0.9580 h1        1 MOL      0.014175
    173 H82         7.6890   -0.3100    0.9980 hc        1 MOL      0.056148
    174 H83         6.3960    0.0550    1.9910 hc        1 MOL      0.056148
    175 H84         7.7220    2.0170    1.1870 hc        1 MOL      0.026726
    176 H85         6.0240    2.2100    1.0200 hc        1 MOL      0.026726
    177 N15         3.3880   -0.6730    1.0560 n         1 MOL     -0.454446
    178 C54         3.7270   -0.9000    2.4720 c3        1 MOL     -0.026414
    179 H86         3.9930    0.0490    2.9380 h1        1 MOL      0.044691
    180 H87         2.8670   -1.3290    2.9880 h1        1 MOL      0.044691
    181 H88         4.5710   -1.5860    2.5390 h1        1 MOL      0.044691
    182 H89         2.4110   -0.5050    0.8910 hn        1 MOL      0.333549
    183 Ca1         4.0980    1.8690   -3.1440 Ca        1 MOL      1.802623
    184 O25         3.1400    1.2980   -5.7390 oh        1 MOL     -0.830318
    185 H90         3.0850    1.9120   -6.4670 ho        1 MOL      0.412209
    186 H91         2.6140    0.5470   -6.0210 ho        1 MOL      0.412209
    187 O26         4.5310    4.2420   -4.3760 oh        1 MOL     -0.830318
    188 H92         5.1780    4.9330   -4.5130 ho        1 MOL      0.412209
    189 H93         3.7390    4.5670   -4.8060 ho        1 MOL      0.412209
    190 O27         3.8330    4.0720   -1.4390 oh        1 MOL     -0.830318
    191 H94         3.1990    3.6670   -0.8520 ho        1 MOL      0.412209
    192 H95         4.0740    4.8960   -1.0050 ho        1 MOL      0.412209
    193 O28         4.3690   -0.7430   -3.3150 oh        1 MOL     -0.830318
    194 H96         4.4860   -1.3940   -2.6110 ho        1 MOL      0.412209
    195 H97         4.0970   -1.2530   -4.0710 ho        1 MOL      0.412209
    196 O29         6.0680    1.1690   -4.6690 oh        1 MOL     -0.830318
    197 H98         6.9340    1.5920   -4.6770 ho        1 MOL      0.412209
    198 H99         6.2210    0.3180   -5.0790 ho        1 MOL      0.412209
@<TRIPOS>BOND
     1    1    2 1   
     2    1    4 1   
     3    1    5 1   
     4    1    6 1   
     5    2    3 2   
     6    2    7 1   
     7    7    8 1   
     8    7   15 1   
     9    8    9 1   
    10    8   11 1   
    11    8   16 1   
    12    9   10 2   
    13    9   19 1   
    14   11   12 1   
    15   11   17 1   
    16   11   18 1   
    17   12   13 1   
    18   12   14 1   
    19   19   20 1   
    20   19   28 1   
    21   20   21 1   
    22   20   23 1   
    23   20   29 1   
    24   21   22 2   
    25   21   41 1   
    26   23   24 1   
    27   23   30 1   
    28   23   31 1   
    29   24   25 1   
    30   24   32 1   
    31   24   33 1   
    32   25   26 1   
    33   25   34 1   
    34   25   35 1   
    35   26   27 1   
    36   26   36 1   
    37   26   37 1   
    38   27   38 1   
    39   27   39 1   
    40   27   40 1   
    41   41   42 1   
    42   41   49 1   
    43   42   43 1   
    44   42   45 1   
    45   42   50 1   
    46   43   44 2   
    47   43   53 1   
    48   45   46 1   
    49   45   51 1   
    50   45   52 1   
    51   46   47 1   
    52   46   48 1   
    53   53   54 1   
    54   53   57 1   
    55   54   55 1   
    56   54   58 1   
    57   54   59 1   
    58   55   56 2   
    59   55   60 1   
    60   60   61 1   
    61   60   68 1   
    62   61   62 1   
    63   61   64 1   
    64   61   69 1   
    65   62   63 2   
    66   62   72 1   
    67   64   65 1   
    68   64   70 1   
    69   64   71 1   
    70   65   66 1   
    71   65   67 1   
    72   72   73 1   
    73   72   76 1   
    74   73   74 1   
    75   73   77 1   
    76   73   78 1   
    77   74   75 2   
    78   74   79 1   
    79   79   80 1   
    80   79   86 1   
    81   80   81 1   
    82   80   83 1   
    83   80   87 1   
    84   81   82 2   
    85   81   93 1   
    86   83   84 1   
    87   83   85 1   
    88   83   88 1   
    89   84   90 1   
    90   84   91 1   
    91   84   92 1   
    92   85   89 1   
    93   93   94 1   
    94   93  101 1   
    95   94   95 1   
    96   94   97 1   
    97   94  102 1   
    98   95   96 2   
    99   95  112 1   
   100   97   98 1   
   101   97   99 1   
   102   97  103 1   
   103   98  100 1   
   104   98  104 1   
   105   98  105 1   
   106   99  106 1   
   107   99  107 1   
   108   99  108 1   
   109  100  109 1   
   110  100  110 1   
   111  100  111 1   
   112  112  113 1   
   113  112  119 1   
   114  113  114 1   
   115  113  116 1   
   116  113  120 1   
   117  114  115 2   
   118  114  126 1   
   119  116  117 1   
   120  116  118 1   
   121  116  121 1   
   122  117  123 1   
   123  117  124 1   
   124  117  125 1   
   125  118  122 1   
   126  126  127 1   
   127  126  133 1   
   128  127  128 1   
   129  127  130 1   
   130  127  134 1   
   131  128  129 2   
   132  128  140 1   
   133  130  131 1   
   134  130  132 1   
   135  130  135 1   
   136  131  137 1   
   137  131  138 1   
   138  131  139 1   
   139  132  136 1   
   140  140  141 1   
   141  140  149 1   
   142  141  142 1   
   143  141  144 1   
   144  141  150 1   
   145  142  143 2   
   146  142  162 1   
   147  144  145 1   
   148  144  151 1   
   149  144  152 1   
   150  145  146 1   
   151  145  153 1   
   152  145  154 1   
   153  146  147 1   
   154  146  155 1   
   155  146  156 1   
   156  147  148 1   
   157  147  157 1   
   158  147  158 1   
   159  148  159 1   
   160  148  160 1   
   161  148  161 1   
   162  162  163 1   
   163  162  171 1   
   164  163  164 1   
   165  163  166 1   
   166  163  172 1   
   167  164  165 2   
   168  164  177 1   
   169  166  167 1   
   170  166  173 1   
   171  166  174 1   
   172  167  168 1   
   173  167  175 1   
   174  167  176 1   
   175  168  169 1   
   176  168  170 1   
   177  177  178 1   
   178  177  182 1   
   179  178  179 1   
   180  178  180 1   
   181  178  181 1   
   182  184  185 1   
   183  184  186 1   
   184  187  188 1   
   185  187  189 1   
   186  190  191 1   
   187  190  192 1   
   188  193  194 1   
   189  193  195 1   
   190  196  197 1   
   191  196  198 1   
@<TRIPOS>SUBSTRUCTURE
     1 MOL         1 TEMP              0 ****  ****    0 ROOT
