@<TRIPOS>MOLECULE
MOL
  189   185     1     0     0
SMALL
resp


@<TRIPOS>ATOM
      1 C1          4.6150    3.6530   -3.5700 c3        1 MOL     -0.445917
      2 C2          5.3990    2.7740   -2.5480 c         1 MOL      0.788085
      3 O1          4.8840    2.4900   -1.4830 o         1 MOL     -0.707215
      4 H1          4.3490    3.0500   -4.4380 hc        1 MOL      0.119480
      5 H2          3.7080    4.0340   -3.1010 hc        1 MOL      0.119480
      6 H3          5.2400    4.4880   -3.8860 hc        1 MOL      0.119480
      7 N1          6.5470    2.1700   -2.8530 n         1 MOL     -0.644168
      8 C3          7.1970    1.1070   -2.0350 c3        1 MOL      0.320302
      9 C4          6.1580    0.0680   -1.6850 c         1 MOL      0.319905
     10 O2          5.6670   -0.0590   -0.5270 o         1 MOL     -0.495088
     11 C5          8.0470    1.7890   -0.8740 c3        1 MOL     -0.202525
     12 C6          7.5280    2.9500    0.0060 c         1 MOL      0.832090
     13 O3          6.9030    2.7560    1.0740 o         1 MOL     -0.761835
     14 O4          7.7460    4.1140   -0.4470 o         1 MOL     -0.761835
     15 H4          7.0380    2.5030   -3.6730 hn        1 MOL      0.302163
     16 H5          7.8490    0.5620   -2.7150 h1        1 MOL      0.016471
     17 H6          8.9160    2.1630   -1.4120 hc        1 MOL      0.022722
     18 H7          8.3940    1.0610   -0.1360 hc        1 MOL      0.022722
     19 N2          5.7100   -0.5750   -2.7900 n         1 MOL     -0.343562
     20 C7          4.8740   -1.8140   -2.7940 c3        1 MOL      0.093194
     21 C8          5.5650   -2.9940   -2.0880 c         1 MOL      0.278576
     22 O5          6.0950   -3.9360   -2.6950 o         1 MOL     -0.526602
     23 C9          3.4790   -1.4290   -2.3450 c3        1 MOL      0.235584
     24 C10         2.4270   -2.5750   -2.7130 c3        1 MOL     -0.035987
     25 C11         2.9040   -0.0950   -2.9440 c3        1 MOL     -0.097643
     26 C12         2.6580   -3.2260   -4.1040 c3        1 MOL     -0.285348
     27 H8          5.9000   -0.1550   -3.6860 hn        1 MOL      0.235178
     28 H9          4.7840   -2.1310   -3.8310 h1        1 MOL      0.029062
     29 H10         3.4140   -1.3420   -1.2610 hc        1 MOL     -0.126505
     30 H11         1.4470   -2.0970   -2.7310 hc        1 MOL      0.073466
     31 H12         2.3890   -3.3040   -1.9050 hc        1 MOL      0.073466
     32 H13         1.9820    0.2350   -2.4640 hc        1 MOL     -0.003208
     33 H14         3.6230    0.7030   -2.7420 hc        1 MOL     -0.003208
     34 H15         2.7040   -0.2240   -4.0150 hc        1 MOL     -0.003208
     35 H16         2.7350   -2.3980   -4.8130 hc        1 MOL      0.056087
     36 H17         3.5850   -3.7950   -4.1250 hc        1 MOL      0.056087
     37 H18         1.8280   -3.8610   -4.3960 hc        1 MOL      0.056087
     38 N3          5.6940   -2.8340   -0.7790 n         1 MOL     -0.002475
     39 C13         6.2490   -3.8440    0.0840 c3        1 MOL      0.059362
     40 C14         5.3240   -4.9970    0.3450 c         1 MOL      0.575378
     41 O6          5.7190   -6.1420    0.3270 o         1 MOL     -0.593905
     42 C15         6.8590   -3.1870    1.2750 c3        1 MOL     -0.262187
     43 C16         8.0280   -2.2430    0.9240 c         1 MOL      0.706117
     44 O7          8.2400   -1.2370    1.6020 o         1 MOL     -0.697109
     45 O8          8.7000   -2.4790   -0.0780 o         1 MOL     -0.697109
     46 H19         5.4110   -1.9480   -0.3760 hn        1 MOL      0.227524
     47 H20         7.1210   -4.3040   -0.3730 h1        1 MOL      0.030114
     48 H21         7.0530   -3.9770    2.0030 hc        1 MOL      0.061323
     49 H22         6.2130   -2.5980    1.9220 hc        1 MOL      0.061323
     50 N4          4.0770   -4.7630    0.6840 n         1 MOL     -0.548823
     51 C17         3.2880   -3.6250    1.0230 c3        1 MOL      0.282220
     52 C18         2.0350   -3.8840    1.8270 c         1 MOL      0.512666
     53 O9          1.4170   -4.9100    1.5350 o         1 MOL     -0.589613
     54 H23         3.6050   -5.6260    0.9020 hn        1 MOL      0.280941
     55 H24         3.0180   -3.0960    0.1130 h1        1 MOL     -0.050866
     56 H25         3.8510   -2.8230    1.5080 h1        1 MOL     -0.050866
     57 N5          1.6220   -3.1520    2.8070 n         1 MOL     -0.506118
     58 C19         2.1060   -1.8350    3.2650 c3        1 MOL      0.361418
     59 C20         2.2220   -0.8690    2.0940 c         1 MOL      0.279638
     60 O10         3.2720   -0.3460    1.8120 o         1 MOL     -0.572926
     61 C21         3.4350   -2.1240    4.0210 c3        1 MOL     -0.463997
     62 C22         4.0100   -0.9240    4.7620 c         1 MOL      0.797713
     63 O11         3.1300   -0.1010    5.1100 o         1 MOL     -0.703908
     64 O12         5.2440   -0.8310    4.9140 o         1 MOL     -0.703908
     65 H26         0.6910   -3.4450    3.0830 hn        1 MOL      0.276699
     66 H27         1.3570   -1.3860    3.9150 h1        1 MOL      0.023108
     67 H28         4.2130   -2.4230    3.3200 hc        1 MOL      0.110055
     68 H29         3.1680   -2.8720    4.7640 hc        1 MOL      0.110055
     69 N6          1.1800   -0.7590    1.2100 n         1 MOL     -0.004479
     70 C23        -0.2060   -1.1110    1.2890 c3        1 MOL     -0.257035
     71 C24        -0.6180   -2.3850    0.5840 c         1 MOL      0.351761
     72 O13        -0.1170   -2.6400   -0.5320 o         1 MOL     -0.429425
     73 H30         1.3990   -0.1560    0.4320 hn        1 MOL      0.122227
     74 H31        -0.7800   -0.2750    0.8970 h1        1 MOL      0.090472
     75 H32        -0.3420   -1.2740    2.3650 h1        1 MOL      0.090472
     76 N7         -1.7220   -3.0100    1.0780 n         1 MOL     -0.366024
     77 C25        -2.3210   -4.1470    0.3400 c3        1 MOL     -0.067752
     78 C26        -2.8020   -3.9860   -1.1200 c         1 MOL      0.454956
     79 O14        -2.8140   -4.8760   -1.8950 o         1 MOL     -0.505586
     80 C27        -3.5280   -4.7290    1.1200 c3        1 MOL     -0.059302
     81 C28        -4.8730   -4.1210    0.9510 c3        1 MOL      0.088209
     82 C29        -5.8170   -4.7060    2.0000 c         1 MOL      0.504573
     83 N8         -7.0380   -4.3330    1.9910 n         1 MOL     -0.591933
     84 O15        -5.4020   -5.3450    2.9130 o         1 MOL     -0.556561
     85 H33        -2.2100   -2.6170    1.8680 hn        1 MOL      0.288115
     86 H34        -1.5510   -4.9130    0.2840 h1        1 MOL      0.144206
     87 H35        -3.2620   -4.7000    2.1790 hc        1 MOL      0.039959
     88 H36        -3.6520   -5.7740    0.8600 hc        1 MOL      0.039959
     89 H37        -5.3400   -4.3760   -0.0120 hc        1 MOL      0.000884
     90 H38        -4.9300   -3.0350    1.0690 hc        1 MOL      0.000884
     91 H39        -7.4020   -4.0990    1.0760 hn        1 MOL      0.304466
     92 H40        -7.5880   -4.8080    2.6930 hn        1 MOL      0.304466
     93 N9         -3.1740   -2.7640   -1.4850 n         1 MOL     -0.246251
     94 C30        -3.4840   -2.2960   -2.8450 c3        1 MOL     -0.201595
     95 C31        -4.7830   -1.5070   -3.0520 c         1 MOL      0.500794
     96 O16        -5.1250   -1.2020   -4.1620 o         1 MOL     -0.539041
     97 C32        -2.2960   -1.5370   -3.4670 c3        1 MOL      0.201058
     98 C33        -1.2120   -2.4760   -3.9730 c3        1 MOL     -0.270945
     99 C34        -1.6840   -0.3910   -2.6370 c3        1 MOL     -0.270945
    100 H41        -3.1270   -2.0610   -0.7610 hn        1 MOL      0.245541
    101 H42        -3.5880   -3.1900   -3.4570 h1        1 MOL      0.150976
    102 H43        -2.6700   -1.0330   -4.3520 hc        1 MOL     -0.002740
    103 H44        -0.8940   -3.0270   -3.0870 hc        1 MOL      0.072929
    104 H45        -1.5810   -3.2590   -4.6440 hc        1 MOL      0.072929
    105 H46        -0.3420   -1.9110   -4.3140 hc        1 MOL      0.072929
    106 H47        -1.1470   -0.8120   -1.7790 hc        1 MOL      0.072929
    107 H48        -0.9530    0.1190   -3.2790 hc        1 MOL      0.072929
    108 H49        -2.4090    0.3250   -2.2650 hc        1 MOL      0.072929
    109 N10        -5.5880   -1.2130   -2.0290 n         1 MOL     -0.311468
    110 C35        -6.9220   -0.5450   -2.0380 c3        1 MOL     -0.009641
    111 C36        -6.9330    0.8490   -1.2660 c         1 MOL      0.525075
    112 O17        -7.9670    1.4780   -1.2650 o         1 MOL     -0.526946
    113 C37        -7.8990   -1.4880   -1.2460 c3        1 MOL     -0.218208
    114 C38        -8.0280   -2.9220   -1.7210 c         1 MOL      0.683841
    115 N11        -8.2420   -3.1640   -2.9490 n         1 MOL     -0.720439
    116 O18        -7.9930   -3.8080   -0.8480 o         1 MOL     -0.621990
    117 H50        -5.2490   -1.5900   -1.1580 hn        1 MOL      0.138584
    118 H51        -7.2460   -0.3960   -3.0640 h1        1 MOL      0.095403
    119 H52        -8.9180   -1.1680   -1.4190 hc        1 MOL      0.087845
    120 H53        -7.5190   -1.4390   -0.2200 hc        1 MOL      0.087845
    121 H54        -8.4580   -2.4230   -3.6030 hn        1 MOL      0.362188
    122 H55        -8.2760   -4.1300   -3.2580 hn        1 MOL      0.362188
    123 N12        -5.7920    1.1720   -0.6300 n         1 MOL     -0.425326
    124 C39        -5.6430    2.2570    0.3560 c3        1 MOL      0.224854
    125 C40        -4.2660    2.9290    0.3350 c         1 MOL      0.331908
    126 O19        -3.3230    2.2670   -0.0650 o         1 MOL     -0.455694
    127 C41        -5.8250    1.6150    1.7360 c3        1 MOL     -0.074765
    128 C42        -7.2030    0.9050    1.9440 ca        1 MOL     -0.031964
    129 C43        -8.3930    1.6080    1.6610 ca        1 MOL     -0.098454
    130 C44        -7.2680   -0.4160    2.3110 ca        1 MOL     -0.098454
    131 C45        -9.6280    0.9330    1.8020 ca        1 MOL     -0.254368
    132 C46        -8.4650   -1.0840    2.3160 ca        1 MOL     -0.254368
    133 C47        -9.6890   -0.4400    2.1000 ca        1 MOL      0.339874
    134 O20       -10.8750   -1.0760    2.3660 oh        1 MOL     -0.527355
    135 H56        -5.0070    0.5380   -0.5770 hn        1 MOL      0.268558
    136 H57        -6.3190    3.0940    0.2190 h1        1 MOL      0.025473
    137 H58        -5.8190    2.3240    2.5600 hc        1 MOL      0.056244
    138 H59        -5.0060    0.9230    1.9000 hc        1 MOL      0.056244
    139 H60        -8.4320    2.6740    1.4740 ha        1 MOL      0.113622
    140 H61        -6.3140   -0.8890    2.4820 ha        1 MOL      0.113622
    141 H62       -10.5430    1.5030    1.7200 ha        1 MOL      0.119652
    142 H63        -8.5080   -2.1470    2.4990 ha        1 MOL      0.119652
    143 H64       -11.6700   -0.5500    2.2170 ho        1 MOL      0.382209
    144 N13        -4.2650    4.2710    0.5930 n         1 MOL     -0.532225
    145 C48        -3.1340    5.1850    0.8710 c3        1 MOL      0.093167
    146 C49        -2.0060    5.3360   -0.1270 c         1 MOL      0.432788
    147 O21        -1.5130    6.4540   -0.2580 o         1 MOL     -0.552384
    148 C50        -2.4450    4.8580    2.1960 c3        1 MOL      0.238298
    149 C51        -2.1790    6.0760    3.1290 c3        1 MOL     -0.129616
    150 C52        -1.3650    5.7260    4.3090 c         1 MOL      0.672560
    151 O22        -0.2150    5.2730    4.0880 o         1 MOL     -0.718434
    152 O23        -1.8320    5.8630    5.4690 o         1 MOL     -0.718434
    153 H65        -5.1280    4.7230    0.8650 hn        1 MOL      0.326562
    154 H66        -3.6040    6.1630    0.9420 h1        1 MOL      0.023054
    155 H67        -1.4660    4.4230    1.9630 hc        1 MOL     -0.046129
    156 H68        -3.0730    4.1680    2.7660 hc        1 MOL     -0.046129
    157 H69        -3.1700    6.4520    3.4080 hc        1 MOL     -0.023792
    158 H70        -1.6900    6.8650    2.5590 hc        1 MOL     -0.023792
    159 N14        -1.6560    4.3450   -0.9350 n         1 MOL     -0.072705
    160 C53        -0.6240    4.2610   -1.9550 c3        1 MOL     -0.312494
    161 C54        -1.0950    5.0450   -3.2100 c         1 MOL      0.594221
    162 O24        -0.2770    5.4010   -4.0870 o         1 MOL     -0.583833
    163 C55        -0.1110    2.8140   -2.1150 c3        1 MOL      0.058266
    164 C56         0.1730    1.9630   -0.8480 c3        1 MOL      0.452891
    165 C57         1.2720    2.4750    0.0870 c         1 MOL      0.456271
    166 O25         1.2300    3.6020    0.5470 o         1 MOL     -0.580026
    167 O26         2.3260    1.8090    0.1790 o         1 MOL     -0.580026
    168 H71        -2.0990    3.4480   -0.7690 hn        1 MOL      0.147295
    169 H72         0.1990    4.9330   -1.6940 h1        1 MOL      0.160629
    170 H73         0.7140    2.9310   -2.8240 hc        1 MOL     -0.020282
    171 H74        -0.7810    2.1790   -2.7120 hc        1 MOL     -0.020282
    172 H75         0.4190    0.9310   -1.1090 hc        1 MOL     -0.115714
    173 H76        -0.7150    1.9980   -0.2140 hc        1 MOL     -0.115714
    174 N15        -2.3330    5.3240   -3.3070 n         1 MOL     -0.288404
    175 C58        -2.9500    6.1750   -4.3990 c3        1 MOL     -0.180227
    176 H77        -3.2100    5.5440   -5.2480 h1        1 MOL      0.091014
    177 H78        -3.8480    6.6600   -4.0180 h1        1 MOL      0.091014
    178 H79        -2.2350    6.9340   -4.7170 h1        1 MOL      0.091014
    179 H80        -2.9030    5.1900   -2.4820 hn        1 MOL      0.200939
    180 Ca1         4.6080    1.7140    1.0500 Ca        1 MOL      1.726448
    181 O27         4.0580    2.2490    3.6850 oh        1 MOL     -0.859469
    182 H81         3.5030    3.0320    3.7340 ho        1 MOL      0.414594
    183 H82         3.6040    1.6000    4.2090 ho        1 MOL      0.414594
    184 O28         3.7890    4.2070    0.8330 oh        1 MOL     -0.859469
    185 H83         2.8350    4.2060    0.7490 ho        1 MOL      0.414594
    186 H84         4.0890    4.6510    0.0390 ho        1 MOL      0.414594
    187 O29         6.1950    0.1900    2.6890 oh        1 MOL     -0.859469
    188 H85         6.1350   -0.1910    3.5580 ho        1 MOL      0.414594
    189 H86         6.9380   -0.2600    2.2770 ho        1 MOL      0.414594
@<TRIPOS>BOND
     1    1    2 1   
     2    1    4 1   
     3    1    5 1   
     4    1    6 1   
     5    2    3 2   
     6    2    7 1   
     7    7    8 1   
     8    7   15 1   
     9    8    9 1   
    10    8   11 1   
    11    8   16 1   
    12    9   10 2   
    13    9   19 1   
    14   11   12 1   
    15   11   17 1   
    16   11   18 1   
    17   12   13 1   
    18   12   14 1   
    19   19   20 1   
    20   19   27 1   
    21   20   21 1   
    22   20   23 1   
    23   20   28 1   
    24   21   22 2   
    25   21   38 1   
    26   23   24 1   
    27   23   25 1   
    28   23   29 1   
    29   24   26 1   
    30   24   30 1   
    31   24   31 1   
    32   25   32 1   
    33   25   33 1   
    34   25   34 1   
    35   26   35 1   
    36   26   36 1   
    37   26   37 1   
    38   38   39 1   
    39   38   46 1   
    40   39   40 1   
    41   39   42 1   
    42   39   47 1   
    43   40   41 2   
    44   40   50 1   
    45   42   43 1   
    46   42   48 1   
    47   42   49 1   
    48   43   44 1   
    49   43   45 1   
    50   50   51 1   
    51   50   54 1   
    52   51   52 1   
    53   51   55 1   
    54   51   56 1   
    55   52   53 2   
    56   52   57 1   
    57   57   58 1   
    58   57   65 1   
    59   58   59 1   
    60   58   61 1   
    61   58   66 1   
    62   59   60 2   
    63   59   69 1   
    64   61   62 1   
    65   61   67 1   
    66   61   68 1   
    67   62   63 1   
    68   62   64 1   
    69   69   70 1   
    70   69   73 1   
    71   70   71 1   
    72   70   74 1   
    73   70   75 1   
    74   71   72 2   
    75   71   76 1   
    76   76   77 1   
    77   76   85 1   
    78   77   78 1   
    79   77   80 1   
    80   77   86 1   
    81   78   79 2   
    82   78   93 1   
    83   80   81 1   
    84   80   87 1   
    85   80   88 1   
    86   81   82 1   
    87   81   89 1   
    88   81   90 1   
    89   82   83 1   
    90   82   84 2   
    91   83   91 1   
    92   83   92 1   
    93   93   94 1   
    94   93  100 1   
    95   94   95 1   
    96   94   97 1   
    97   94  101 1   
    98   95   96 2   
    99   95  109 1   
   100   97   98 1   
   101   97   99 1   
   102   97  102 1   
   103   98  103 1   
   104   98  104 1   
   105   98  105 1   
   106   99  106 1   
   107   99  107 1   
   108   99  108 1   
   109  109  110 1   
   110  109  117 1   
   111  110  111 1   
   112  110  113 1   
   113  110  118 1   
   114  111  112 2   
   115  111  123 1   
   116  113  114 1   
   117  113  119 1   
   118  113  120 1   
   119  114  115 1   
   120  114  116 2   
   121  115  121 1   
   122  115  122 1   
   123  123  124 1   
   124  123  135 1   
   125  124  125 1   
   126  124  127 1   
   127  124  136 1   
   128  125  126 2   
   129  125  144 1   
   130  127  128 1   
   131  127  137 1   
   132  127  138 1   
   133  128  129 ar  
   134  128  130 ar  
   135  129  131 ar  
   136  129  139 1   
   137  130  132 ar  
   138  130  140 1   
   139  131  133 ar  
   140  131  141 1   
   141  132  133 ar  
   142  132  142 1   
   143  133  134 1   
   144  134  143 1   
   145  144  145 1   
   146  144  153 1   
   147  145  146 1   
   148  145  148 1   
   149  145  154 1   
   150  146  147 2   
   151  146  159 1   
   152  148  149 1   
   153  148  155 1   
   154  148  156 1   
   155  149  150 1   
   156  149  157 1   
   157  149  158 1   
   158  150  151 1   
   159  150  152 1   
   160  159  160 1   
   161  159  168 1   
   162  160  161 1   
   163  160  163 1   
   164  160  169 1   
   165  161  162 2   
   166  161  174 1   
   167  163  164 1   
   168  163  170 1   
   169  163  171 1   
   170  164  165 1   
   171  164  172 1   
   172  164  173 1   
   173  165  166 1   
   174  165  167 1   
   175  174  175 1   
   176  174  179 1   
   177  175  176 1   
   178  175  177 1   
   179  175  178 1   
   180  181  182 1   
   181  181  183 1   
   182  184  185 1   
   183  184  186 1   
   184  187  188 1   
   185  187  189 1   
@<TRIPOS>SUBSTRUCTURE
     1 MOL         1 TEMP              0 ****  ****    0 ROOT
