@<TRIPOS>MOLECULE
MOL
  181   177     1     0     0
SMALL
resp


@<TRIPOS>ATOM
      1 C1          5.7070   -4.8760    4.8470 c3        1 MOL     -0.460625
      2 C2          4.9230   -4.0130    3.7410 c         1 MOL      0.737071
      3 O1          4.0340   -3.2410    4.0990 o         1 MOL     -0.575234
      4 H1          5.0930   -4.9630    5.7430 hc        1 MOL      0.114953
      5 H2          5.9160   -5.8700    4.4530 hc        1 MOL      0.114953
      6 H3          6.6450   -4.3790    5.0980 hc        1 MOL      0.114953
      7 N1          5.2360   -4.0820    2.4560 n         1 MOL     -0.493257
      8 C3          6.3470   -4.7090    1.8270 c3        1 MOL      0.071247
      9 C4          6.1910   -4.7580    0.2520 c         1 MOL      0.381008
     10 O2          5.1440   -4.5110   -0.3170 o         1 MOL     -0.399826
     11 C5          7.6610   -3.8370    2.0540 c3        1 MOL     -0.207455
     12 C6          7.5440   -2.3530    1.7240 c         1 MOL      0.672052
     13 O3          7.1430   -1.5960    2.5880 o         1 MOL     -0.710965
     14 O4          8.0010   -1.9600    0.6400 o         1 MOL     -0.710965
     15 H4          4.7870   -3.4720    1.7920 hn        1 MOL      0.335396
     16 H5          6.5420   -5.6810    2.2740 h1        1 MOL      0.060001
     17 H6          8.4470   -4.2640    1.4380 hc        1 MOL      0.025370
     18 H7          7.8930   -3.9780    3.1110 hc        1 MOL      0.025370
     19 N2          7.2690   -5.0480   -0.4650 n         1 MOL     -0.391910
     20 C7          7.4580   -5.0430   -1.9720 c3        1 MOL      0.193674
     21 C8          6.7970   -3.8360   -2.8080 c         1 MOL      0.344256
     22 O5          6.5630   -3.9230   -3.9950 o         1 MOL     -0.519920
     23 C9          6.8520   -6.3620   -2.6320 c3        1 MOL     -0.546435
     24 H8          8.0800   -5.2010    0.1050 hn        1 MOL      0.269333
     25 H9          8.5290   -4.9160   -2.1530 h1        1 MOL      0.036379
     26 H10         7.2190   -7.2440   -2.1070 hc        1 MOL      0.160077
     27 H11         5.7720   -6.4300   -2.5310 hc        1 MOL      0.160077
     28 H12         7.0280   -6.4110   -3.7020 hc        1 MOL      0.160077
     29 N3          6.3670   -2.8090   -2.0740 n         1 MOL      0.032286
     30 C10         5.5800   -1.6450   -2.5130 c3        1 MOL     -0.131372
     31 C11         6.3510   -0.3390   -2.4610 c         1 MOL      0.457595
     32 O6          7.2150   -0.1240   -1.6740 o         1 MOL     -0.568787
     33 C12         4.2020   -1.6180   -1.7970 c3        1 MOL      0.399189
     34 C13         4.1110   -1.5540   -0.2840 c         1 MOL      0.289174
     35 O7          3.1060   -2.0620    0.2120 o         1 MOL     -0.559028
     36 O8          5.0090   -1.0340    0.3700 o         1 MOL     -0.559028
     37 H13         6.5600   -2.7760   -1.0800 hn        1 MOL     -0.036939
     38 H14         5.2550   -1.6420   -3.5500 h1        1 MOL      0.031228
     39 H15         3.6830   -2.5030   -2.1530 hc        1 MOL     -0.044160
     40 H16         3.5310   -0.8430   -2.1580 hc        1 MOL     -0.044160
     41 N4          5.9510    0.5740   -3.3300 n         1 MOL     -0.193700
     42 C14         6.3790    2.0080   -3.3560 c3        1 MOL     -0.520293
     43 C15         6.1170    2.8100   -2.0760 c         1 MOL      0.923465
     44 O9          6.1300    2.2920   -0.9850 o         1 MOL     -0.735298
     45 H17         5.2840    0.3240   -4.0410 hn        1 MOL      0.254015
     46 H18         5.7940    2.4260   -4.1720 h1        1 MOL      0.178591
     47 H19         7.4400    2.0570   -3.6240 h1        1 MOL      0.178591
     48 N5          5.6360    4.0560   -2.2580 n         1 MOL     -0.747735
     49 C16         5.0670    4.9320   -1.2350 c3        1 MOL      0.282074
     50 C17         3.6740    4.4660   -0.7570 c         1 MOL      0.589920
     51 O10         2.9220    3.9770   -1.5310 o         1 MOL     -0.516330
     52 C18         5.0110    6.3310   -1.7590 c3        1 MOL     -0.227327
     53 C19         4.3930    7.3610   -0.8630 c         1 MOL      0.577135
     54 N6          3.2830    7.8670   -1.2790 n         1 MOL     -0.686534
     55 O11         4.7640    7.5810    0.2860 o         1 MOL     -0.562253
     56 H20         5.4540    4.4290   -3.1730 hn        1 MOL      0.326230
     57 H21         5.7340    4.9450   -0.3720 h1        1 MOL      0.017881
     58 H22         4.3920    6.4000   -2.6480 hc        1 MOL      0.065973
     59 H23         5.9540    6.6920   -2.1550 hc        1 MOL      0.065973
     60 H24         3.0070    7.8410   -2.2460 hn        1 MOL      0.354733
     61 H25         2.7290    8.3590   -0.5900 hn        1 MOL      0.354733
     62 N7          3.2940    4.8190    0.4710 n         1 MOL     -0.529123
     63 C20         1.9940    4.6440    1.1070 c3        1 MOL      0.287188
     64 C21         1.7430    3.1920    1.5630 c         1 MOL      0.553988
     65 O12         2.5950    2.7370    2.3550 o         1 MOL     -0.618564
     66 H26         3.9950    5.2630    1.0340 hn        1 MOL      0.285893
     67 H27         1.1530    4.9420    0.4860 h1        1 MOL     -0.019694
     68 H28         1.9080    5.2260    2.0350 h1        1 MOL     -0.019694
     69 N8          0.8820    2.3460    0.9830 n         1 MOL     -0.460695
     70 C22        -0.0150    2.7520   -0.1280 c3        1 MOL     -0.055156
     71 C23        -1.2330    3.5730    0.2860 c         1 MOL      0.425681
     72 O13        -1.1410    4.7570    0.1200 o         1 MOL     -0.488501
     73 C24        -0.3020    1.6190   -1.1420 c3        1 MOL      0.231876
     74 C25         0.9890    0.9330   -1.7580 c3        1 MOL     -0.218666
     75 O14        -1.0800    0.6230   -0.5750 oh        1 MOL     -0.559063
     76 H29         1.0200    1.3550    1.1530 hn        1 MOL      0.364428
     77 H30         0.5750    3.4290   -0.7500 h1        1 MOL      0.081689
     78 H31        -0.7710    2.0250   -2.0380 h1        1 MOL      0.044776
     79 H32        -1.4590    0.2020   -1.3430 ho        1 MOL      0.391716
     80 H33         1.3530    1.5580   -2.5790 hc        1 MOL      0.053231
     81 H34         1.7940    0.7380   -1.0640 hc        1 MOL      0.053231
     82 H35         0.6540    0.0670   -2.3290 hc        1 MOL      0.053231
     83 N9         -2.2960    2.9620    0.8560 n         1 MOL     -0.116057
     84 C26        -3.5920    3.5230    1.0270 c3        1 MOL     -0.113152
     85 C27        -4.1720    4.1750   -0.2270 c         1 MOL      0.680640
     86 O15        -4.0190    5.3830   -0.5040 o         1 MOL     -0.594536
     87 C28        -3.5940    4.4500    2.3240 c3        1 MOL      0.120879
     88 C29        -2.6850    4.0290    3.4880 c3        1 MOL      0.006022
     89 C30        -4.9980    4.5870    2.8580 c3        1 MOL     -0.249705
     90 C31        -2.9000    2.5480    4.0100 c3        1 MOL     -0.317386
     91 H36        -2.3300    1.9720    1.0700 hn        1 MOL      0.244265
     92 H37        -4.1840    2.6810    1.3870 h1        1 MOL      0.102822
     93 H38        -3.2290    5.4490    2.1230 hc        1 MOL     -0.020125
     94 H39        -2.8040    4.7310    4.3060 hc        1 MOL      0.006974
     95 H40        -1.6680    3.9440    3.0880 hc        1 MOL      0.006974
     96 H41        -5.6900    4.8670    2.0580 hc        1 MOL      0.056818
     97 H42        -5.4680    3.6940    3.2530 hc        1 MOL      0.056818
     98 H43        -5.0370    5.3030    3.6860 hc        1 MOL      0.056818
     99 H44        -2.7770    1.8260    3.2000 hc        1 MOL      0.080215
    100 H45        -2.1280    2.4230    4.7680 hc        1 MOL      0.080215
    101 H46        -3.8790    2.5230    4.4840 hc        1 MOL      0.080215
    102 N10        -4.7990    3.4140   -1.0950 n         1 MOL     -0.574112
    103 C32        -4.8300    1.9590   -1.1670 c3        1 MOL      0.477216
    104 C33        -5.8130    1.1220   -0.2350 c         1 MOL      0.165345
    105 O16        -5.3280    0.2650    0.5410 o         1 MOL     -0.434930
    106 C34        -5.1190    1.5850   -2.6460 c3        1 MOL     -0.311148
    107 C35        -6.4880    2.1230   -3.2220 c         1 MOL      0.682952
    108 O17        -6.8310    1.7750   -4.3600 o         1 MOL     -0.671549
    109 O18        -7.2800    2.8350   -2.5110 o         1 MOL     -0.671549
    110 H47        -5.0560    3.8460   -1.9780 hn        1 MOL      0.286016
    111 H48        -3.8240    1.6880   -0.8590 h1        1 MOL     -0.150370
    112 H49        -5.0860    0.5050   -2.7110 hc        1 MOL      0.068283
    113 H50        -4.2790    2.0560   -3.1690 hc        1 MOL      0.068283
    114 N11        -7.1450    1.4600   -0.0500 n         1 MOL     -0.475703
    115 C36        -8.0590    0.3660    0.2200 c3        1 MOL      0.692872
    116 C37        -8.4910   -0.2750   -1.1520 c         1 MOL      0.387245
    117 O19        -8.8510    0.4510   -2.0950 o         1 MOL     -0.485263
    118 C38        -9.2460    0.9270    0.9590 c3        1 MOL     -0.290608
    119 C39       -10.1830   -0.1440    1.4800 ca        1 MOL      0.117099
    120 C40       -11.1760   -0.6420    0.6880 ca        1 MOL     -0.153529
    121 C41       -10.0520   -0.5440    2.8100 ca        1 MOL     -0.153529
    122 C42       -12.0500   -1.5550    1.2170 ca        1 MOL     -0.112495
    123 C43       -10.9390   -1.5040    3.3740 ca        1 MOL     -0.112495
    124 C44       -11.9600   -1.9830    2.5550 ca        1 MOL     -0.166087
    125 H51        -7.4720    2.1430   -0.7130 hn        1 MOL      0.222400
    126 H52        -7.5370   -0.2080    0.9830 h1        1 MOL     -0.131590
    127 H53        -9.7750    1.5240    0.2190 hc        1 MOL      0.061579
    128 H54        -8.8210    1.5730    1.7280 hc        1 MOL      0.061579
    129 H55       -11.3040   -0.2520   -0.3150 ha        1 MOL      0.103575
    130 H56        -9.3790   -0.1150    3.5250 ha        1 MOL      0.103575
    131 H57       -12.8900   -1.9290    0.6500 ha        1 MOL      0.102788
    132 H58       -10.8620   -1.8490    4.4010 ha        1 MOL      0.102788
    133 H59       -12.6180   -2.7470    2.9430 ha        1 MOL      0.102674
    134 N12        -8.5500   -1.6180   -1.2840 n         1 MOL     -0.110717
    135 C45        -7.8500   -2.5780   -0.3810 c3        1 MOL      0.009155
    136 C46        -6.3000   -2.4760   -0.5670 c         1 MOL      1.081994
    137 O20        -5.8690   -1.7760   -1.4480 o         1 MOL     -0.601573
    138 C47        -8.4300   -3.9300   -0.9430 c3        1 MOL     -0.291650
    139 C48        -8.5180   -3.7190   -2.4460 c3        1 MOL      0.134706
    140 C49        -8.9530   -2.2020   -2.5570 c3        1 MOL     -0.092088
    141 H60        -8.0750   -2.5010    0.6850 h1        1 MOL     -0.019735
    142 H61        -7.7640   -4.7590   -0.7080 hc        1 MOL      0.057931
    143 H62        -9.4640   -4.0110   -0.6000 hc        1 MOL      0.057931
    144 H63        -7.5080   -3.8570   -2.8290 hc        1 MOL     -0.012796
    145 H64        -9.2590   -4.2720   -3.0160 hc        1 MOL     -0.012796
    146 H65        -8.4980   -1.7330   -3.4250 h1        1 MOL      0.067445
    147 H66       -10.0400   -2.1660   -2.6730 h1        1 MOL      0.067445
    148 N13        -5.5230   -3.0150    0.3540 n         1 MOL     -0.934861
    149 C50        -4.0230   -2.8590    0.3660 c3        1 MOL      0.470113
    150 C51        -3.4430   -3.2330    1.7410 c         1 MOL      0.367374
    151 O21        -2.4450   -3.9270    1.8670 o         1 MOL     -0.513386
    152 C52        -3.3210   -3.4370   -0.9330 c3        1 MOL     -0.093291
    153 C53        -3.4260   -4.9900   -0.9710 c3        1 MOL     -0.038563
    154 C54        -2.8920   -5.7280   -2.2100 c         1 MOL      0.708714
    155 O22        -1.7150   -5.5210   -2.5860 o         1 MOL     -0.726183
    156 O23        -3.6480   -6.5270   -2.7620 o         1 MOL     -0.726183
    157 H67        -5.9360   -3.6710    1.0030 hn        1 MOL      0.350339
    158 H68        -3.7140   -1.8100    0.3190 h1        1 MOL     -0.040657
    159 H69        -2.2610   -3.2060   -0.9550 hc        1 MOL      0.034342
    160 H70        -3.8530   -3.0200   -1.7970 hc        1 MOL      0.034342
    161 H71        -4.4990   -5.1890   -1.0200 hc        1 MOL     -0.043060
    162 H72        -3.0250   -5.4240   -0.0530 hc        1 MOL     -0.043060
    163 N14        -3.9870   -2.7930    2.8630 n         1 MOL     -0.332527
    164 C55        -5.0390   -1.8260    3.1990 c3        1 MOL      0.043298
    165 H73        -4.7800   -1.3150    4.1260 h1        1 MOL      0.016133
    166 H74        -5.1300   -1.0950    2.3960 h1        1 MOL      0.016133
    167 H75        -5.9870   -2.3490    3.3250 h1        1 MOL      0.016133
    168 H76        -3.5560   -3.2120    3.6740 hn        1 MOL      0.241366
    169 Ca1         6.9880    0.4240    0.9750 Ca        1 MOL      1.806180
    170 O24        10.0300   -0.1620    1.5150 oh        1 MOL     -0.852060
    171 H77        10.7210   -0.4690    2.1130 ho        1 MOL      0.414625
    172 H78         9.6810   -0.9680    1.1280 ho        1 MOL      0.414625
    173 O25         8.4980    2.4130    0.5380 oh        1 MOL     -0.852060
    174 H79         8.4540    3.1460   -0.0740 ho        1 MOL      0.414625
    175 H80         9.2890    2.5650    1.0470 ho        1 MOL      0.414625
    176 O26         4.6640    0.9900    2.2600 oh        1 MOL     -0.852060
    177 H81         4.0940    0.2580    2.0320 ho        1 MOL      0.414625
    178 H82         4.0660    1.6980    2.5010 ho        1 MOL      0.414625
    179 O27         7.7970    1.5610    3.3540 oh        1 MOL     -0.852060
    180 H83         8.5910    1.5230    3.8760 ho        1 MOL      0.414625
    181 H84         7.2380    2.1870    3.8040 ho        1 MOL      0.414625
@<TRIPOS>BOND
     1    1    2 1   
     2    1    4 1   
     3    1    5 1   
     4    1    6 1   
     5    2    3 2   
     6    2    7 1   
     7    7    8 1   
     8    7   15 1   
     9    8    9 1   
    10    8   11 1   
    11    8   16 1   
    12    9   10 2   
    13    9   19 1   
    14   11   12 1   
    15   11   17 1   
    16   11   18 1   
    17   12   13 1   
    18   12   14 1   
    19   19   20 1   
    20   19   24 1   
    21   20   21 1   
    22   20   23 1   
    23   20   25 1   
    24   21   22 2   
    25   21   29 1   
    26   23   26 1   
    27   23   27 1   
    28   23   28 1   
    29   29   30 1   
    30   29   37 1   
    31   30   31 1   
    32   30   33 1   
    33   30   38 1   
    34   31   32 2   
    35   31   41 1   
    36   33   34 1   
    37   33   39 1   
    38   33   40 1   
    39   34   35 1   
    40   34   36 1   
    41   41   42 1   
    42   41   45 1   
    43   42   43 1   
    44   42   46 1   
    45   42   47 1   
    46   43   44 2   
    47   43   48 1   
    48   48   49 1   
    49   48   56 1   
    50   49   50 1   
    51   49   52 1   
    52   49   57 1   
    53   50   51 2   
    54   50   62 1   
    55   52   53 1   
    56   52   58 1   
    57   52   59 1   
    58   53   54 1   
    59   53   55 2   
    60   54   60 1   
    61   54   61 1   
    62   62   63 1   
    63   62   66 1   
    64   63   64 1   
    65   63   67 1   
    66   63   68 1   
    67   64   65 2   
    68   64   69 1   
    69   69   70 1   
    70   69   76 1   
    71   70   71 1   
    72   70   73 1   
    73   70   77 1   
    74   71   72 2   
    75   71   83 1   
    76   73   74 1   
    77   73   75 1   
    78   73   78 1   
    79   74   80 1   
    80   74   81 1   
    81   74   82 1   
    82   75   79 1   
    83   83   84 1   
    84   83   91 1   
    85   84   85 1   
    86   84   87 1   
    87   84   92 1   
    88   85   86 2   
    89   85  102 1   
    90   87   88 1   
    91   87   89 1   
    92   87   93 1   
    93   88   90 1   
    94   88   94 1   
    95   88   95 1   
    96   89   96 1   
    97   89   97 1   
    98   89   98 1   
    99   90   99 1   
   100   90  100 1   
   101   90  101 1   
   102  102  103 1   
   103  102  110 1   
   104  103  104 1   
   105  103  106 1   
   106  103  111 1   
   107  104  105 2   
   108  104  114 1   
   109  106  107 1   
   110  106  112 1   
   111  106  113 1   
   112  107  108 1   
   113  107  109 1   
   114  114  115 1   
   115  114  125 1   
   116  115  116 1   
   117  115  118 1   
   118  115  126 1   
   119  116  117 2   
   120  116  134 1   
   121  118  119 1   
   122  118  127 1   
   123  118  128 1   
   124  119  120 ar  
   125  119  121 ar  
   126  120  122 ar  
   127  120  129 1   
   128  121  123 ar  
   129  121  130 1   
   130  122  124 ar  
   131  122  131 1   
   132  123  124 ar  
   133  123  132 1   
   134  124  133 1   
   135  134  135 1   
   136  134  140 1   
   137  135  136 1   
   138  135  138 1   
   139  135  141 1   
   140  136  137 2   
   141  136  148 1   
   142  138  139 1   
   143  138  142 1   
   144  138  143 1   
   145  139  140 1   
   146  139  144 1   
   147  139  145 1   
   148  140  146 1   
   149  140  147 1   
   150  148  149 1   
   151  148  157 1   
   152  149  150 1   
   153  149  152 1   
   154  149  158 1   
   155  150  151 2   
   156  150  163 1   
   157  152  153 1   
   158  152  159 1   
   159  152  160 1   
   160  153  154 1   
   161  153  161 1   
   162  153  162 1   
   163  154  155 1   
   164  154  156 1   
   165  163  164 1   
   166  163  168 1   
   167  164  165 1   
   168  164  166 1   
   169  164  167 1   
   170  170  171 1   
   171  170  172 1   
   172  173  174 1   
   173  173  175 1   
   174  176  177 1   
   175  176  178 1   
   176  179  180 1   
   177  179  181 1   
@<TRIPOS>SUBSTRUCTURE
     1 MOL         1 TEMP              0 ****  ****    0 ROOT
