@<TRIPOS>MOLECULE
MOL
  192   187     1     0     0
SMALL
resp


@<TRIPOS>ATOM
      1 C1         -6.3070   -4.4770    2.9870 c3        1 MOL     -0.043210
      2 C2         -5.3100   -3.9640    1.9100 c         1 MOL      0.669738
      3 O1         -4.8220   -2.8320    2.0070 o         1 MOL     -0.463507
      4 H1         -5.7690   -4.6760    3.9140 hc        1 MOL     -0.031378
      5 H2         -7.0700   -3.7200    3.1650 hc        1 MOL     -0.031378
      6 H3         -6.7790   -5.3940    2.6370 hc        1 MOL     -0.031378
      7 N1         -5.1400   -4.7420    0.8640 n         1 MOL     -0.930488
      8 C3         -4.2800   -4.4770   -0.2840 c3        1 MOL     -0.071563
      9 C4         -2.7710   -4.4600    0.0380 c         1 MOL      0.702930
     10 O2         -1.9610   -4.0680   -0.8130 o         1 MOL     -0.547714
     11 C5         -4.8180   -3.2170   -1.0310 c3        1 MOL     -0.514296
     12 C6         -6.3710   -3.1790   -1.2260 c         1 MOL      0.886791
     13 O3         -7.1830   -2.4290   -0.6200 o         1 MOL     -0.702687
     14 O4         -6.8290   -3.8910   -2.1250 o         1 MOL     -0.702687
     15 H4         -5.5320   -5.6690    0.9160 hn        1 MOL      0.471753
     16 H5         -4.4120   -5.3650   -0.9060 h1        1 MOL      0.154477
     17 H6         -4.4570   -3.2610   -2.0660 hc        1 MOL      0.204236
     18 H7         -4.5200   -2.2600   -0.6100 hc        1 MOL      0.204236
     19 N2         -2.3610   -5.0600    1.2080 n         1 MOL     -0.551577
     20 C7         -0.9760   -5.1990    1.6310 c3        1 MOL      0.009911
     21 C8         -0.2600   -6.2700    0.7750 c         1 MOL      0.495401
     22 O5         -0.6860   -7.4350    0.7530 o         1 MOL     -0.596519
     23 C9         -0.9680   -5.5860    3.1710 c3        1 MOL      0.042274
     24 C10        -1.8990   -4.6960    4.0290 c3        1 MOL     -0.110686
     25 C11         0.4300   -5.4750    3.7570 c3        1 MOL     -0.120782
     26 C12        -1.6660   -3.1550    4.2350 c3        1 MOL     -0.219856
     27 H8         -3.1140   -5.4830    1.7340 hn        1 MOL      0.319235
     28 H9         -0.5230   -4.2210    1.4800 h1        1 MOL      0.150222
     29 H10        -1.2220   -6.6430    3.2890 hc        1 MOL      0.017675
     30 H11        -1.9500   -5.1400    5.0190 hc        1 MOL      0.056315
     31 H12        -2.8890   -4.9160    3.6410 hc        1 MOL      0.056315
     32 H13         0.7120   -4.4240    3.6880 hc        1 MOL      0.030519
     33 H14         0.4530   -5.6540    4.8230 hc        1 MOL      0.030519
     34 H15         1.1790   -6.1130    3.2770 hc        1 MOL      0.030519
     35 H16        -0.8960   -3.0340    5.0010 hc        1 MOL      0.070006
     36 H17        -1.4770   -2.5280    3.3600 hc        1 MOL      0.070006
     37 H18        -2.6270   -2.8370    4.6190 hc        1 MOL      0.070006
     38 N3          0.9420   -6.0590    0.2650 n         1 MOL     -0.202924
     39 C13         1.6420   -4.8190   -0.1810 c3        1 MOL     -0.117921
     40 C14         2.5690   -5.1560   -1.3410 c         1 MOL      0.547177
     41 O6          2.9270   -6.3100   -1.4850 o         1 MOL     -0.522045
     42 C15         2.5260   -4.2580    1.0520 c3        1 MOL     -0.303680
     43 C16         3.4730   -3.1520    0.5780 c         1 MOL      0.749500
     44 O7          4.6310   -3.4420    0.1650 o         1 MOL     -0.662425
     45 O8          3.0500   -1.9710    0.6390 o         1 MOL     -0.662425
     46 H19         1.3710   -6.8600   -0.1570 hn        1 MOL      0.208317
     47 H20         0.8800   -4.0670   -0.4080 h1        1 MOL      0.072396
     48 H21         3.0040   -5.0690    1.6010 hc        1 MOL      0.072067
     49 H22         1.7650   -3.8800    1.7390 hc        1 MOL      0.072067
     50 N4          2.7990   -4.2260   -2.2290 n         1 MOL     -0.396643
     51 C17         3.4940   -4.4240   -3.5160 c3        1 MOL     -0.084623
     52 C18         4.7620   -3.6300   -3.6240 c         1 MOL      0.604468
     53 O9          5.2630   -3.5940   -4.7940 o         1 MOL     -0.612955
     54 H23         2.4540   -3.2780   -2.1290 hn        1 MOL      0.331518
     55 H24         2.8990   -4.0630   -4.3490 h1        1 MOL      0.081005
     56 H25         3.7530   -5.4750   -3.6230 h1        1 MOL      0.081005
     57 N5          5.3680   -3.0270   -2.5570 n         1 MOL     -0.400115
     58 C19         6.6490   -2.3120   -2.7770 c3        1 MOL      0.002467
     59 C20         7.6010   -2.1390   -1.4680 c         1 MOL      0.399358
     60 O10         8.8150   -2.2460   -1.7280 o         1 MOL     -0.571285
     61 C21         6.3290   -0.8770   -3.3470 c3        1 MOL     -0.105696
     62 C22         5.2020   -0.0460   -2.7150 c         1 MOL      0.751196
     63 O11         5.4360    0.4480   -1.6200 o         1 MOL     -0.680773
     64 O12         4.1620    0.1270   -3.3110 o         1 MOL     -0.680773
     65 H26         4.9530   -3.1040   -1.6460 hn        1 MOL      0.235908
     66 H27         7.2460   -2.8720   -3.5040 h1        1 MOL      0.086789
     67 H28         6.0610   -0.9610   -4.4010 hc        1 MOL     -0.003813
     68 H29         7.2570   -0.3040   -3.3030 hc        1 MOL     -0.003813
     69 N6          7.1130   -2.1120   -0.2340 n         1 MOL     -0.086126
     70 C23         7.8810   -1.8860    0.9800 c3        1 MOL     -0.232338
     71 C24         8.2740   -0.4030    1.0660 c         1 MOL      0.612609
     72 O13         8.8970   -0.0710    2.0460 o         1 MOL     -0.605228
     73 H30         6.1430   -2.3630   -0.1340 hn        1 MOL      0.198034
     74 H31         8.7910   -2.4650    0.8440 h1        1 MOL      0.102279
     75 H32         7.2580   -2.1940    1.8130 h1        1 MOL      0.102279
     76 N7          7.9200    0.4450    0.1140 n         1 MOL     -0.204424
     77 C25         8.2420    1.8680   -0.1170 c3        1 MOL      0.051807
     78 C26         7.7520    2.7940    1.0350 c         1 MOL      0.380952
     79 O14         8.2410    3.8990    1.2740 o         1 MOL     -0.481782
     80 C27         9.7580    2.0670   -0.5510 c3        1 MOL     -0.036141
     81 C28        10.1100    1.2700   -1.8230 c3        1 MOL      0.031842
     82 C29        11.4880    1.5480   -2.4150 c         1 MOL      0.561541
     83 N8         11.9440    0.7640   -3.3270 n         1 MOL     -0.700227
     84 O15        12.2270    2.4730   -2.0190 o         1 MOL     -0.577721
     85 H33         7.3540    0.0450   -0.6260 hn        1 MOL      0.103058
     86 H34         7.6390    2.1080   -0.9930 h1        1 MOL      0.101698
     87 H35        10.4440    1.5640    0.1340 hc        1 MOL      0.026806
     88 H36        10.0790    3.1080   -0.5410 hc        1 MOL      0.026806
     89 H37         9.3840    1.6090   -2.5710 hc        1 MOL     -0.007626
     90 H38        10.0870    0.1890   -1.7260 hc        1 MOL     -0.007626
     91 H39        11.2930    0.0920   -3.6930 hn        1 MOL      0.327556
     92 H40        12.8260    0.9410   -3.7930 hn        1 MOL      0.327556
     93 N9          6.6430    2.3970    1.7800 n         1 MOL     -0.391506
     94 C30         6.1930    3.0070    3.0230 c3        1 MOL      0.080030
     95 C31         4.6610    3.0360    3.2980 c         1 MOL      0.407503
     96 O16         4.1860    3.6050    4.2620 o         1 MOL     -0.550360
     97 C32         6.7030    2.3270    4.3360 c3        1 MOL      0.274936
     98 C33         6.2900    0.8270    4.3380 c3        1 MOL     -0.303375
     99 C34         8.2130    2.4690    4.5540 c3        1 MOL     -0.303375
    100 H41         6.2040    1.5400    1.4650 hn        1 MOL      0.262978
    101 H42         6.5650    4.0240    3.0640 h1        1 MOL      0.075045
    102 H43         6.2370    2.8410    5.1830 hc        1 MOL     -0.041970
    103 H44         6.4810    0.3120    5.2870 hc        1 MOL      0.064142
    104 H45         5.2370    0.6410    4.1270 hc        1 MOL      0.064142
    105 H46         6.7630    0.2910    3.5210 hc        1 MOL      0.064142
    106 H47         8.6930    2.0550    3.6730 hc        1 MOL      0.064142
    107 H48         8.3660    3.5500    4.6070 hc        1 MOL      0.064142
    108 H49         8.6180    1.9060    5.3860 hc        1 MOL      0.064142
    109 N10         3.8920    2.4580    2.3790 n         1 MOL     -0.472458
    110 C35         2.3910    2.2360    2.4400 c3        1 MOL      0.544367
    111 C36         1.8680    2.6070    1.1350 c         1 MOL      0.395594
    112 O17         2.5070    2.4770    0.1290 o         1 MOL     -0.488264
    113 C37         2.1000    0.7870    2.9240 c3        1 MOL     -0.118635
    114 C38         0.6800    0.3320    2.7400 c         1 MOL      0.541592
    115 N11         0.5340   -0.6430    1.8740 n         1 MOL     -0.711691
    116 O18        -0.2490    0.8540    3.3310 o         1 MOL     -0.576739
    117 H50         4.3790    2.0470    1.6000 hn        1 MOL      0.218510
    118 H51         2.0070    2.8780    3.2350 h1        1 MOL     -0.040574
    119 H52         2.2420    0.8070    4.0020 hc        1 MOL      0.032319
    120 H53         2.7690    0.1050    2.3980 hc        1 MOL      0.032319
    121 H54         1.2650   -1.1270    1.3770 hn        1 MOL      0.354108
    122 H55        -0.4340   -0.8790    1.7200 hn        1 MOL      0.354108
    123 N12         0.5760    2.8960    1.0670 n         1 MOL     -0.565271
    124 C39        -0.1540    2.9830   -0.1930 c3        1 MOL      0.197037
    125 C40        -1.4300    3.7970    0.0700 c         1 MOL      0.611957
    126 O19        -2.0370    3.6890    1.1590 o         1 MOL     -0.546699
    127 C41        -0.4030    1.6460   -0.7390 c3        1 MOL     -0.144048
    128 C42        -1.2960    1.6580   -1.9800 ca        1 MOL     -0.030464
    129 C43        -0.8010    2.3340   -3.1220 ca        1 MOL     -0.063661
    130 C44        -2.5320    0.9760   -2.0010 ca        1 MOL     -0.063661
    131 C45        -1.5680    2.2880   -4.3120 ca        1 MOL     -0.266815
    132 C46        -3.2840    0.9780   -3.1560 ca        1 MOL     -0.266815
    133 C47        -2.8370    1.6940   -4.3310 ca        1 MOL      0.341893
    134 O20        -3.5150    1.6400   -5.5010 oh        1 MOL     -0.501617
    135 H56         0.0360    2.7920    1.9050 hn        1 MOL      0.259613
    136 H57         0.5150    3.4780   -0.9020 h1        1 MOL      0.079868
    137 H58        -0.7290    0.9510    0.0350 hc        1 MOL      0.091086
    138 H59         0.5500    1.2110   -1.0210 hc        1 MOL      0.091086
    139 H60         0.0850    2.9270   -3.2420 ha        1 MOL      0.111872
    140 H61        -2.7890    0.4340   -1.0960 ha        1 MOL      0.111872
    141 H62        -1.2080    2.7890   -5.2010 ha        1 MOL      0.133449
    142 H63        -4.2390    0.4710   -3.2220 ha        1 MOL      0.133449
    143 H64        -3.2460    2.2720   -6.1780 ho        1 MOL      0.362123
    144 N13        -1.8890    4.6130   -0.8630 n         1 MOL     -0.726326
    145 C48        -3.1260    5.3690   -0.7510 c3        1 MOL      0.444257
    146 C49        -4.0590    5.3070   -1.9720 c         1 MOL      0.447029
    147 O21        -3.8530    5.9860   -3.0030 o         1 MOL     -0.551286
    148 C50        -2.7050    6.8230   -0.3280 c3        1 MOL     -0.099165
    149 C51        -3.8410    7.7320    0.1350 c3        1 MOL     -0.218971
    150 C52        -3.4710    9.2060    0.3820 c         1 MOL      0.721512
    151 O22        -3.0660    9.5130    1.5430 o         1 MOL     -0.665521
    152 O23        -3.6040   10.0680   -0.4730 o         1 MOL     -0.665521
    153 H65        -1.4820    4.5830   -1.7900 hn        1 MOL      0.286295
    154 H66        -3.6420    5.1290    0.1800 h1        1 MOL     -0.035371
    155 H67        -2.0970    7.3420   -1.0780 hc        1 MOL      0.051297
    156 H68        -2.1000    6.6660    0.5590 hc        1 MOL      0.051297
    157 H69        -4.2970    7.3620    1.0490 hc        1 MOL      0.042262
    158 H70        -4.6150    7.7120   -0.6340 hc        1 MOL      0.042262
    159 N14        -5.0680    4.4730   -1.8270 n         1 MOL     -0.446371
    160 C53        -5.3050    3.4350   -0.8470 c3        1 MOL      0.023964
    161 C54        -5.8790    4.0210    0.5210 c         1 MOL      0.615202
    162 O24        -6.4940    5.0650    0.5930 o         1 MOL     -0.578308
    163 C55        -6.3700    2.5440   -1.5340 c3        1 MOL      0.155732
    164 C56        -6.8980    1.3680   -0.7270 c3        1 MOL      0.220703
    165 C57        -8.0610    0.6570   -1.4290 c         1 MOL      0.429664
    166 O25        -7.9740    0.2960   -2.6380 o         1 MOL     -0.625941
    167 O26        -9.0130    0.3420   -0.7060 o         1 MOL     -0.625941
    168 H71        -5.7470    4.4390   -2.5720 hn        1 MOL      0.276556
    169 H72        -4.5070    2.7440   -0.6010 h1        1 MOL      0.027115
    170 H73        -5.9170    2.2230   -2.4720 hc        1 MOL     -0.048421
    171 H74        -7.2200    3.2100   -1.7040 hc        1 MOL     -0.048421
    172 H75        -7.3200    1.8440    0.1660 hc        1 MOL     -0.136400
    173 H76        -6.1310    0.6190   -0.5300 hc        1 MOL     -0.136400
    174 N15        -5.5510    3.3000    1.6420 n         1 MOL     -0.186548
    175 C58        -5.7370    3.5110    3.1140 c3        1 MOL     -0.286310
    176 H77        -4.7650    3.5120    3.6060 h1        1 MOL      0.108870
    177 H78        -6.2320    4.4670    3.2840 h1        1 MOL      0.108870
    178 H79        -6.3490    2.7060    3.5220 h1        1 MOL      0.108870
    179 H80        -4.8860    2.5550    1.4770 hn        1 MOL      0.179983
    180 Ca1        -9.5610   -1.9440    0.1680 Ca        1 MOL      1.642035
    181 O27       -11.5270   -1.7120   -1.4970 oh        1 MOL     -0.970613
    182 H81       -11.5090   -1.6700   -2.4480 ho        1 MOL      0.446505
    183 H82       -12.0010   -0.9190   -1.2290 ho        1 MOL      0.446505
    184 O28        -8.3630   -1.0020    2.3390 oh        1 MOL     -0.970613
    185 H83        -9.0240   -0.9000    3.0270 ho        1 MOL      0.446505
    186 H84        -7.5570   -0.6430    2.7340 ho        1 MOL      0.446505
    187 O29       -11.0890    0.3690    1.5410 oh        1 MOL     -0.970613
    188 H85       -11.3110    1.0710    0.9390 ho        1 MOL      0.446505
    189 H86       -10.4190    0.7520    2.1160 ho        1 MOL      0.446505
    190 O30        -9.6320   -4.1220   -1.2790 oh        1 MOL     -0.970613
    191 H87       -10.2730   -4.6690   -1.7390 ho        1 MOL      0.446505
    192 H88        -8.7990   -4.5690   -1.4220 ho        1 MOL      0.446505
@<TRIPOS>BOND
     1    1    2 1   
     2    1    4 1   
     3    1    5 1   
     4    1    6 1   
     5    2    3 2   
     6    2    7 1   
     7    7    8 1   
     8    7   15 1   
     9    8    9 1   
    10    8   11 1   
    11    8   16 1   
    12    9   10 2   
    13    9   19 1   
    14   11   12 1   
    15   11   17 1   
    16   11   18 1   
    17   12   13 1   
    18   12   14 1   
    19   19   20 1   
    20   19   27 1   
    21   20   21 1   
    22   20   23 1   
    23   20   28 1   
    24   21   22 2   
    25   21   38 1   
    26   23   24 1   
    27   23   25 1   
    28   23   29 1   
    29   24   26 1   
    30   24   30 1   
    31   24   31 1   
    32   25   32 1   
    33   25   33 1   
    34   25   34 1   
    35   26   35 1   
    36   26   36 1   
    37   26   37 1   
    38   38   39 1   
    39   38   46 1   
    40   39   40 1   
    41   39   42 1   
    42   39   47 1   
    43   40   41 2   
    44   40   50 1   
    45   42   43 1   
    46   42   48 1   
    47   42   49 1   
    48   43   44 1   
    49   43   45 1   
    50   50   51 1   
    51   50   54 1   
    52   51   52 1   
    53   51   55 1   
    54   51   56 1   
    55   52   53 2   
    56   52   57 1   
    57   57   58 1   
    58   57   65 1   
    59   58   59 1   
    60   58   61 1   
    61   58   66 1   
    62   59   60 2   
    63   59   69 1   
    64   61   62 1   
    65   61   67 1   
    66   61   68 1   
    67   62   63 1   
    68   62   64 1   
    69   69   70 1   
    70   69   73 1   
    71   70   71 1   
    72   70   74 1   
    73   70   75 1   
    74   71   72 2   
    75   71   76 1   
    76   76   77 1   
    77   76   85 1   
    78   77   78 1   
    79   77   80 1   
    80   77   86 1   
    81   78   79 2   
    82   78   93 1   
    83   80   81 1   
    84   80   87 1   
    85   80   88 1   
    86   81   82 1   
    87   81   89 1   
    88   81   90 1   
    89   82   83 1   
    90   82   84 2   
    91   83   91 1   
    92   83   92 1   
    93   93   94 1   
    94   93  100 1   
    95   94   95 1   
    96   94   97 1   
    97   94  101 1   
    98   95   96 2   
    99   95  109 1   
   100   97   98 1   
   101   97   99 1   
   102   97  102 1   
   103   98  103 1   
   104   98  104 1   
   105   98  105 1   
   106   99  106 1   
   107   99  107 1   
   108   99  108 1   
   109  109  110 1   
   110  109  117 1   
   111  110  111 1   
   112  110  113 1   
   113  110  118 1   
   114  111  112 2   
   115  111  123 1   
   116  113  114 1   
   117  113  119 1   
   118  113  120 1   
   119  114  115 1   
   120  114  116 2   
   121  115  121 1   
   122  115  122 1   
   123  123  124 1   
   124  123  135 1   
   125  124  125 1   
   126  124  127 1   
   127  124  136 1   
   128  125  126 2   
   129  125  144 1   
   130  127  128 1   
   131  127  137 1   
   132  127  138 1   
   133  128  129 ar  
   134  128  130 ar  
   135  129  131 ar  
   136  129  139 1   
   137  130  132 ar  
   138  130  140 1   
   139  131  133 ar  
   140  131  141 1   
   141  132  133 ar  
   142  132  142 1   
   143  133  134 1   
   144  134  143 1   
   145  144  145 1   
   146  144  153 1   
   147  145  146 1   
   148  145  148 1   
   149  145  154 1   
   150  146  147 2   
   151  146  159 1   
   152  148  149 1   
   153  148  155 1   
   154  148  156 1   
   155  149  150 1   
   156  149  157 1   
   157  149  158 1   
   158  150  151 1   
   159  150  152 1   
   160  159  160 1   
   161  159  168 1   
   162  160  161 1   
   163  160  163 1   
   164  160  169 1   
   165  161  162 2   
   166  161  174 1   
   167  163  164 1   
   168  163  170 1   
   169  163  171 1   
   170  164  165 1   
   171  164  172 1   
   172  164  173 1   
   173  165  166 1   
   174  165  167 1   
   175  174  175 1   
   176  174  179 1   
   177  175  176 1   
   178  175  177 1   
   179  175  178 1   
   180  181  182 1   
   181  181  183 1   
   182  184  185 1   
   183  184  186 1   
   184  187  188 1   
   185  187  189 1   
   186  190  191 1   
   187  190  192 1   
@<TRIPOS>SUBSTRUCTURE
     1 MOL         1 TEMP              0 ****  ****    0 ROOT
