@<TRIPOS>MOLECULE
MOL
  189   185     1     0     0
SMALL
resp


@<TRIPOS>ATOM
      1 C1          9.4500    0.3480    2.5450 c3        1 MOL     -0.499450
      2 C2          8.3990    0.3920    1.4260 c         1 MOL      0.774550
      3 O1          7.2340    0.2830    1.7990 o         1 MOL     -0.681409
      4 H1          9.1600   -0.3970    3.2860 hc        1 MOL      0.122116
      5 H2         10.4200    0.0820    2.1240 hc        1 MOL      0.122116
      6 H3          9.5150    1.3260    3.0210 hc        1 MOL      0.122116
      7 N1          8.7110    0.3590    0.1270 n         1 MOL     -0.480766
      8 C3          7.7290    0.5050   -0.9620 c3        1 MOL     -0.008822
      9 C4          6.9650   -0.7760   -1.3490 c         1 MOL      0.513061
     10 O2          6.5370   -1.0090   -2.4840 o         1 MOL     -0.422287
     11 C5          8.4110    1.1270   -2.2420 c3        1 MOL     -0.164874
     12 C6          9.7030    0.4280   -2.7230 c         1 MOL      0.663165
     13 O3         10.5580    0.0070   -1.9040 o         1 MOL     -0.620206
     14 O4          9.9660    0.3240   -3.9340 o         1 MOL     -0.620206
     15 H4          9.6650    0.3470   -0.1960 hn        1 MOL      0.213509
     16 H5          7.0510    1.2670   -0.5790 h1        1 MOL      0.106277
     17 H6          8.5250    2.1670   -1.9460 hc        1 MOL      0.062446
     18 H7          7.6830    1.1980   -3.0540 hc        1 MOL      0.062446
     19 N2          6.9340   -1.7140   -0.3580 n         1 MOL     -0.446160
     20 C7          6.3880   -3.0890   -0.5640 c3        1 MOL      0.242793
     21 C8          5.0090   -3.1540   -1.2210 c         1 MOL      0.287481
     22 O5          4.8850   -3.7650   -2.2240 o         1 MOL     -0.497279
     23 C9          6.5690   -4.0030    0.6840 c3        1 MOL     -0.040119
     24 C10         8.0380   -4.0480    1.2140 c3        1 MOL     -0.027955
     25 C11         8.1890   -5.0900    2.3430 c3        1 MOL      0.114133
     26 C12         9.5560   -4.9880    3.1100 c3        1 MOL     -0.016193
     27 N3          9.4540   -5.7660    4.3090 n4        1 MOL     -0.217270
     28 H8          7.3160   -1.4300    0.5330 hn        1 MOL      0.233775
     29 H9          7.0980   -3.5250   -1.2680 h1        1 MOL      0.046071
     30 H10         6.2430   -5.0240    0.5170 hc        1 MOL      0.004724
     31 H11         5.9850   -3.4390    1.4120 hc        1 MOL      0.004724
     32 H12         8.1790   -3.0650    1.6610 hc        1 MOL      0.017057
     33 H13         8.8130   -4.2630    0.4730 hc        1 MOL      0.017057
     34 H14         8.2020   -6.0840    1.9120 hc        1 MOL     -0.004736
     35 H15         7.3550   -5.0260    3.0430 hc        1 MOL     -0.004736
     36 H16         9.6580   -3.9340    3.3780 hx        1 MOL      0.078232
     37 H17        10.3390   -5.3380    2.4230 hx        1 MOL      0.078232
     38 H18         8.7790   -5.4880    5.0000 hn        1 MOL      0.244395
     39 H19         9.3010   -6.7190    4.0010 hn        1 MOL      0.244395
     40 H20        10.3570   -5.6470    4.7490 hn        1 MOL      0.244395
     41 N4          4.0400   -2.4320   -0.7600 n         1 MOL     -0.119485
     42 C13         3.9490   -1.5570    0.4040 c3        1 MOL     -0.408902
     43 C14         3.8160   -0.0390    0.0060 c         1 MOL      0.193654
     44 O6          3.8270    0.2160   -1.1880 o         1 MOL     -0.352353
     45 C15         2.6360   -1.9440    1.2420 c3        1 MOL     -0.131317
     46 C16         1.3510   -2.0500    0.4840 c         1 MOL      0.655581
     47 O7          1.2880   -1.5090   -0.6590 o         1 MOL     -0.617066
     48 O8          0.4030   -2.7500    0.9650 o         1 MOL     -0.617066
     49 H21         3.1260   -2.4490   -1.1990 hn        1 MOL      0.298543
     50 H22         4.7860   -1.7310    1.0700 h1        1 MOL      0.235793
     51 H23         2.6210   -1.1830    2.0340 hc        1 MOL      0.054188
     52 H24         2.8160   -2.8890    1.7480 hc        1 MOL      0.054188
     53 N5          3.8650    0.9320    0.9120 n         1 MOL     -0.064193
     54 C17         3.6080    2.3990    0.5770 c3        1 MOL     -0.342894
     55 C18         2.4120    2.7890   -0.2540 c         1 MOL      0.754481
     56 O9          1.5270    1.9940   -0.4970 o         1 MOL     -0.681581
     57 H25         4.0930    0.7370    1.8790 hn        1 MOL      0.268528
     58 H26         4.3330    2.8320   -0.1100 h1        1 MOL      0.118801
     59 H27         3.6560    2.9440    1.5170 h1        1 MOL      0.118801
     60 N6          2.4510    4.0360   -0.6700 n         1 MOL     -0.412346
     61 C19         1.3200    4.7720   -1.3880 c3        1 MOL      0.090579
     62 C20         1.2740    6.2740   -1.1680 c         1 MOL      0.451671
     63 O10         2.2550    6.9440   -0.8290 o         1 MOL     -0.508233
     64 C21         1.3470    4.5810   -2.9810 c3        1 MOL     -0.222080
     65 C22         1.4760    3.2050   -3.4630 c         1 MOL      0.715020
     66 O11         2.5600    2.8050   -3.9400 o         1 MOL     -0.682978
     67 O12         0.5600    2.3530   -3.2680 o         1 MOL     -0.682978
     68 H28         3.1510    4.6800   -0.3520 hn        1 MOL      0.273666
     69 H29         0.4080    4.3810   -0.9450 h1        1 MOL      0.054715
     70 H30         2.1180    5.1970   -3.4470 hc        1 MOL      0.075265
     71 H31         0.4190    4.9140   -3.4600 hc        1 MOL      0.075265
     72 N7          0.1040    6.9260   -1.3310 n         1 MOL     -0.486353
     73 C23        -1.1770    6.2640   -1.2860 c3        1 MOL      0.033799
     74 C24        -1.5090    5.6600    0.1360 c         1 MOL      0.608534
     75 O13        -0.7400    5.7660    1.0450 o         1 MOL     -0.500981
     76 H32         0.1190    7.9390   -1.3050 hn        1 MOL      0.340625
     77 H33        -1.1970    5.4640   -2.0240 h1        1 MOL      0.032709
     78 H34        -1.9480    7.0110   -1.4770 h1        1 MOL      0.032709
     79 N8         -2.6850    5.0310    0.2380 n         1 MOL     -0.460828
     80 C25        -3.3880    4.7880    1.5360 c3        1 MOL     -0.139146
     81 C26        -2.7020    4.0240    2.6130 c         1 MOL      0.524128
     82 O14        -3.0090    4.2390    3.7960 o         1 MOL     -0.579093
     83 C27        -4.8200    4.2070    1.2430 c3        1 MOL      0.449172
     84 C28        -4.8700    2.8160    0.6890 c3        1 MOL     -0.211084
     85 O15        -5.3850    4.9690    0.2550 oh        1 MOL     -0.624155
     86 H35        -3.1450    4.8640   -0.6480 hn        1 MOL      0.242574
     87 H36        -3.6140    5.7790    1.9080 h1        1 MOL      0.092801
     88 H37        -5.4210    4.3540    2.1400 h1        1 MOL     -0.024393
     89 H38        -5.3670    5.8860    0.5370 ho        1 MOL      0.381799
     90 H39        -4.1610    2.2080    1.2470 hc        1 MOL      0.059435
     91 H40        -5.8680    2.4000    0.8120 hc        1 MOL      0.059435
     92 H41        -4.5470    2.7940   -0.3520 hc        1 MOL      0.059435
     93 N9         -1.8140    3.0910    2.2730 n         1 MOL     -0.131538
     94 C29        -1.2660    2.0170    3.0330 c3        1 MOL     -0.300481
     95 C30        -1.4550    0.7370    2.2080 c         1 MOL      0.271573
     96 O16        -1.1190    0.6320    0.9760 o         1 MOL     -0.349586
     97 C31         0.2450    2.1950    3.2410 c3        1 MOL      0.304999
     98 C32         0.5050    3.5400    3.9860 c3        1 MOL     -0.092472
     99 C33         0.6950    1.0350    4.1580 c3        1 MOL     -0.618213
    100 C34         1.9440    3.9780    4.0250 c3        1 MOL     -0.127622
    101 H42        -1.5020    3.0600    1.3120 hn        1 MOL      0.211510
    102 H43        -1.7070    1.8370    4.0130 h1        1 MOL      0.123182
    103 H44         0.8080    2.1830    2.3100 hc        1 MOL     -0.038056
    104 H45         0.1560    3.4040    5.0050 hc        1 MOL      0.056404
    105 H46        -0.0740    4.3340    3.5260 hc        1 MOL      0.056404
    106 H47         1.6640    1.3230    4.5600 hc        1 MOL      0.156984
    107 H48         0.0040    0.8960    4.9770 hc        1 MOL      0.156984
    108 H49         0.7020    0.1450    3.5230 hc        1 MOL      0.156984
    109 H50         2.5960    3.2640    4.5300 hc        1 MOL      0.036829
    110 H51         2.2620    3.8810    2.9890 hc        1 MOL      0.036829
    111 H52         2.0190    4.9960    4.3880 hc        1 MOL      0.036829
    112 N10        -2.1230   -0.2330    2.8230 n         1 MOL     -0.012125
    113 C35        -2.1560   -1.6110    2.2820 c3        1 MOL     -0.258687
    114 C36        -3.5550   -2.0850    1.8580 c         1 MOL      0.480639
    115 O17        -3.8070   -3.2180    1.3610 o         1 MOL     -0.592037
    116 C37        -1.6050   -2.7240    3.2280 c3        1 MOL      0.553664
    117 C38        -2.1160   -2.5000    4.6510 c3        1 MOL     -0.275258
    118 O18        -0.2160   -2.6820    3.3590 oh        1 MOL     -0.680744
    119 H53        -2.3810    0.0230    3.7690 hn        1 MOL      0.212550
    120 H54        -1.5510   -1.7260    1.3810 h1        1 MOL      0.129736
    121 H55        -1.8540   -3.7570    2.9560 h1        1 MOL     -0.014511
    122 H56         0.1180   -2.6800    2.4650 ho        1 MOL      0.364517
    123 H57        -1.4300   -1.8120    5.1410 hc        1 MOL      0.048810
    124 H58        -3.1510   -2.1770    4.7540 hc        1 MOL      0.048810
    125 H59        -2.0400   -3.4440    5.1890 hc        1 MOL      0.048810
    126 N11        -4.5040   -1.2030    2.1780 n         1 MOL     -0.248759
    127 C39        -5.9360   -1.2760    2.0000 c3        1 MOL     -0.070323
    128 C40        -6.3320   -1.5120    0.5170 c         1 MOL      0.446640
    129 O19        -6.0170   -0.6380   -0.2660 o         1 MOL     -0.439798
    130 C41        -6.5340   -0.0110    2.5580 c3        1 MOL      0.357104
    131 C42        -8.0840   -0.0920    2.5950 c3        1 MOL     -0.598343
    132 O20        -6.1520    0.3090    3.8750 oh        1 MOL     -0.645413
    133 H60        -4.1490   -0.4660    2.7750 hn        1 MOL      0.194005
    134 H61        -6.4280   -2.0630    2.5800 h1        1 MOL      0.049912
    135 H62        -6.2600    0.8410    1.9340 h1        1 MOL      0.038166
    136 H63        -6.9460    0.5520    4.3670 ho        1 MOL      0.416252
    137 H64        -8.5040   -0.9970    3.0160 hc        1 MOL      0.159816
    138 H65        -8.4260    0.7980    3.1220 hc        1 MOL      0.159816
    139 H66        -8.3640   -0.1210    1.5420 hc        1 MOL      0.159816
    140 N12        -6.8850   -2.7360    0.1790 n         1 MOL     -0.438182
    141 C43        -7.1200   -3.1700   -1.1330 c3        1 MOL      0.170765
    142 C44        -5.9980   -2.9210   -2.1200 c         1 MOL      0.315304
    143 O21        -6.2190   -2.3200   -3.2170 o         1 MOL     -0.482047
    144 C45        -8.4160   -2.6460   -1.6680 c3        1 MOL     -0.080179
    145 C46        -9.6950   -3.1680   -0.9920 c3        1 MOL     -0.144971
    146 C47       -10.7280   -1.9790   -0.7290 c3        1 MOL     -0.035947
    147 C48       -12.1100   -2.3280   -0.2390 c3        1 MOL      0.140215
    148 N13       -13.0360   -2.7310   -1.2900 n4        1 MOL     -0.333954
    149 H67        -7.2750   -3.2200    0.9730 hn        1 MOL      0.277510
    150 H68        -7.2700   -4.2430   -1.0170 h1        1 MOL      0.038146
    151 H69        -8.5750   -2.8990   -2.7200 hc        1 MOL      0.075114
    152 H70        -8.3320   -1.5680   -1.6810 hc        1 MOL      0.075114
    153 H71        -9.4830   -3.7040   -0.0640 hc        1 MOL      0.045355
    154 H72       -10.2430   -3.9080   -1.5860 hc        1 MOL      0.045355
    155 H73       -10.8550   -1.3250   -1.5820 hc        1 MOL      0.037723
    156 H74       -10.3940   -1.3720    0.1170 hc        1 MOL      0.037723
    157 H75       -12.5330   -1.4920    0.3080 hx        1 MOL      0.044165
    158 H76       -12.0330   -3.1170    0.5050 hx        1 MOL      0.044165
    159 H77       -13.1740   -1.9570   -1.9340 hn        1 MOL      0.272821
    160 H78       -12.6000   -3.4910   -1.7910 hn        1 MOL      0.272821
    161 H79       -13.9840   -2.9310   -1.0000 hn        1 MOL      0.272821
    162 N14        -4.7860   -3.0540   -1.6450 n         1 MOL     -0.468199
    163 C49        -3.6620   -2.4750   -2.3580 c3        1 MOL      0.324223
    164 C50        -2.4800   -2.4890   -1.3880 c         1 MOL      0.529885
    165 O22        -1.9200   -1.4090   -1.2540 o         1 MOL     -0.766003
    166 C51        -3.3030   -3.1850   -3.7170 c3        1 MOL     -0.152935
    167 C52        -2.0190   -2.6420   -4.3890 c3        1 MOL      0.078892
    168 C53        -1.9580   -1.1500   -4.6010 c         1 MOL      0.634532
    169 O23        -1.2090   -0.4520   -3.8960 o         1 MOL     -0.645210
    170 O24        -2.8870   -0.6850   -5.3080 o         1 MOL     -0.645210
    171 H80        -4.7630   -3.2970   -0.6640 hn        1 MOL      0.297656
    172 H81        -3.8760   -1.4480   -2.6420 h1        1 MOL      0.087931
    173 H82        -4.1170   -3.2050   -4.4340 hc        1 MOL      0.040808
    174 H83        -3.1440   -4.2340   -3.4870 hc        1 MOL      0.040808
    175 H84        -1.9260   -3.1270   -5.3600 hc        1 MOL     -0.041102
    176 H85        -1.2030   -3.0000   -3.7610 hc        1 MOL     -0.041102
    177 N15        -1.9740   -3.5380   -0.7870 n         1 MOL     -0.121147
    178 C54        -2.1470   -5.0170   -1.0500 c3        1 MOL     -0.195813
    179 H86        -3.2090   -5.2550   -1.0950 h1        1 MOL      0.079152
    180 H87        -1.6760   -5.2750   -2.0000 h1        1 MOL      0.079152
    181 H88        -1.6810   -5.5870   -0.2460 h1        1 MOL      0.079152
    182 H89        -1.1360   -3.2670   -0.2940 hn        1 MOL      0.198335
    183 Ca1         0.0090    0.4300   -1.7290 Ca        1 MOL      1.692991
    184 O25        -2.0890    2.0400   -1.7610 oh        1 MOL     -0.945302
    185 H90        -2.2400    2.7690   -2.3530 ho        1 MOL      0.442544
    186 H91        -2.8860    1.5180   -1.8170 ho        1 MOL      0.442544
    187 O26         2.1930    0.1420   -3.1600 oh        1 MOL     -0.945302
    188 H92         2.9560   -0.0530   -2.6190 ho        1 MOL      0.442544
    189 H93         2.3500    1.0210   -3.4900 ho        1 MOL      0.442544
@<TRIPOS>BOND
     1    1    2 1   
     2    1    4 1   
     3    1    5 1   
     4    1    6 1   
     5    2    3 2   
     6    2    7 1   
     7    7    8 1   
     8    7   15 1   
     9    8    9 1   
    10    8   11 1   
    11    8   16 1   
    12    9   10 2   
    13    9   19 1   
    14   11   12 1   
    15   11   17 1   
    16   11   18 1   
    17   12   13 1   
    18   12   14 1   
    19   19   20 1   
    20   19   28 1   
    21   20   21 1   
    22   20   23 1   
    23   20   29 1   
    24   21   22 2   
    25   21   41 1   
    26   23   24 1   
    27   23   30 1   
    28   23   31 1   
    29   24   25 1   
    30   24   32 1   
    31   24   33 1   
    32   25   26 1   
    33   25   34 1   
    34   25   35 1   
    35   26   27 1   
    36   26   36 1   
    37   26   37 1   
    38   27   38 1   
    39   27   39 1   
    40   27   40 1   
    41   41   42 1   
    42   41   49 1   
    43   42   43 1   
    44   42   45 1   
    45   42   50 1   
    46   43   44 2   
    47   43   53 1   
    48   45   46 1   
    49   45   51 1   
    50   45   52 1   
    51   46   47 1   
    52   46   48 1   
    53   53   54 1   
    54   53   57 1   
    55   54   55 1   
    56   54   58 1   
    57   54   59 1   
    58   55   56 2   
    59   55   60 1   
    60   60   61 1   
    61   60   68 1   
    62   61   62 1   
    63   61   64 1   
    64   61   69 1   
    65   62   63 2   
    66   62   72 1   
    67   64   65 1   
    68   64   70 1   
    69   64   71 1   
    70   65   66 1   
    71   65   67 1   
    72   72   73 1   
    73   72   76 1   
    74   73   74 1   
    75   73   77 1   
    76   73   78 1   
    77   74   75 2   
    78   74   79 1   
    79   79   80 1   
    80   79   86 1   
    81   80   81 1   
    82   80   83 1   
    83   80   87 1   
    84   81   82 2   
    85   81   93 1   
    86   83   84 1   
    87   83   85 1   
    88   83   88 1   
    89   84   90 1   
    90   84   91 1   
    91   84   92 1   
    92   85   89 1   
    93   93   94 1   
    94   93  101 1   
    95   94   95 1   
    96   94   97 1   
    97   94  102 1   
    98   95   96 2   
    99   95  112 1   
   100   97   98 1   
   101   97   99 1   
   102   97  103 1   
   103   98  100 1   
   104   98  104 1   
   105   98  105 1   
   106   99  106 1   
   107   99  107 1   
   108   99  108 1   
   109  100  109 1   
   110  100  110 1   
   111  100  111 1   
   112  112  113 1   
   113  112  119 1   
   114  113  114 1   
   115  113  116 1   
   116  113  120 1   
   117  114  115 2   
   118  114  126 1   
   119  116  117 1   
   120  116  118 1   
   121  116  121 1   
   122  117  123 1   
   123  117  124 1   
   124  117  125 1   
   125  118  122 1   
   126  126  127 1   
   127  126  133 1   
   128  127  128 1   
   129  127  130 1   
   130  127  134 1   
   131  128  129 2   
   132  128  140 1   
   133  130  131 1   
   134  130  132 1   
   135  130  135 1   
   136  131  137 1   
   137  131  138 1   
   138  131  139 1   
   139  132  136 1   
   140  140  141 1   
   141  140  149 1   
   142  141  142 1   
   143  141  144 1   
   144  141  150 1   
   145  142  143 2   
   146  142  162 1   
   147  144  145 1   
   148  144  151 1   
   149  144  152 1   
   150  145  146 1   
   151  145  153 1   
   152  145  154 1   
   153  146  147 1   
   154  146  155 1   
   155  146  156 1   
   156  147  148 1   
   157  147  157 1   
   158  147  158 1   
   159  148  159 1   
   160  148  160 1   
   161  148  161 1   
   162  162  163 1   
   163  162  171 1   
   164  163  164 1   
   165  163  166 1   
   166  163  172 1   
   167  164  165 2   
   168  164  177 1   
   169  166  167 1   
   170  166  173 1   
   171  166  174 1   
   172  167  168 1   
   173  167  175 1   
   174  167  176 1   
   175  168  169 1   
   176  168  170 1   
   177  177  178 1   
   178  177  182 1   
   179  178  179 1   
   180  178  180 1   
   181  178  181 1   
   182  184  185 1   
   183  184  186 1   
   184  187  188 1   
   185  187  189 1   
@<TRIPOS>SUBSTRUCTURE
     1 MOL         1 TEMP              0 ****  ****    0 ROOT
