@<TRIPOS>MOLECULE
MOL
  192   187     1     0     0
SMALL
resp


@<TRIPOS>ATOM
      1 C1          5.0920    4.3100   -3.0380 c3        1 MOL     -0.470543
      2 C2          5.7290    3.4310   -1.9970 c         1 MOL      0.908932
      3 O1          5.0640    3.1330   -0.9690 o         1 MOL     -0.641275
      4 H1          5.7830    5.1060   -3.3130 hc        1 MOL      0.114810
      5 H2          4.8540    3.7150   -3.9200 hc        1 MOL      0.114810
      6 H3          4.1780    4.7450   -2.6360 hc        1 MOL      0.114810
      7 N1          6.9170    2.8670   -2.3430 n         1 MOL     -0.801931
      8 C3          7.5060    1.6520   -1.6690 c3        1 MOL      0.571190
      9 C4          6.3870    0.5880   -1.4580 c         1 MOL      0.172728
     10 O2          5.9030    0.3200   -0.3030 o         1 MOL     -0.504426
     11 C5          8.3820    1.9230   -0.4270 c3        1 MOL     -0.276101
     12 C6          7.8680    2.9430    0.6300 c         1 MOL      0.763142
     13 O3          6.9020    2.7200    1.3300 o         1 MOL     -0.737720
     14 O4          8.3520    4.1020    0.4730 o         1 MOL     -0.737720
     15 H4          7.5040    3.2430   -3.0810 hn        1 MOL      0.330347
     16 H5          8.1470    1.0870   -2.3500 h1        1 MOL     -0.042351
     17 H6          9.3860    2.1750   -0.7770 hc        1 MOL      0.030625
     18 H7          8.4310    1.0060    0.1630 hc        1 MOL      0.030625
     19 N2          5.9570   -0.0250   -2.5580 n         1 MOL     -0.307383
     20 C7          4.9700   -1.0180   -2.8680 c3        1 MOL      0.058149
     21 C8          5.3070   -2.4100   -2.3140 c         1 MOL      0.278585
     22 O5          5.3540   -3.4500   -3.0430 o         1 MOL     -0.535407
     23 C9          3.5180   -0.6290   -2.4700 c3        1 MOL      0.049761
     24 C10         2.4910   -1.6530   -3.0290 c3        1 MOL     -0.123529
     25 C11         3.1920    0.7780   -3.0470 c3        1 MOL     -0.005860
     26 C12         2.5450   -2.0100   -4.4890 c3        1 MOL     -0.358734
     27 H8          6.3060    0.3660   -3.4200 hn        1 MOL      0.234729
     28 H9          5.0470   -1.1170   -3.9570 h1        1 MOL      0.072965
     29 H10         3.4280   -0.5710   -1.3830 hc        1 MOL     -0.018447
     30 H11         1.4860   -1.2420   -2.8990 hc        1 MOL      0.166497
     31 H12         2.5200   -2.5820   -2.4560 hc        1 MOL      0.166497
     32 H13         3.8020    1.5600   -2.5870 hc        1 MOL     -0.016096
     33 H14         3.4080    0.8050   -4.1180 hc        1 MOL     -0.016096
     34 H15         2.1330    1.0070   -2.8740 hc        1 MOL     -0.016096
     35 H16         1.6460   -2.5880   -4.7210 hc        1 MOL      0.075528
     36 H17         2.4360   -1.0870   -5.0700 hc        1 MOL      0.075528
     37 H18         3.4320   -2.5730   -4.7740 hc        1 MOL      0.075528
     38 N3          5.6380   -2.4700   -1.0340 n         1 MOL     -0.027821
     39 C13         6.1570   -3.6680   -0.3520 c3        1 MOL      0.002424
     40 C14         5.3300   -4.8910   -0.3470 c         1 MOL      0.602343
     41 O6          5.8540   -5.9220   -0.6600 o         1 MOL     -0.576901
     42 C15         6.6030   -3.2200    1.0210 c3        1 MOL     -0.256834
     43 C16         7.7360   -2.2120    0.9620 c         1 MOL      0.743369
     44 O7          8.6040   -2.2900    0.0210 o         1 MOL     -0.704648
     45 O8          7.8520   -1.3790    1.9100 o         1 MOL     -0.704648
     46 H19         5.6240   -1.5800   -0.5630 hn        1 MOL      0.260337
     47 H20         7.0320   -3.8810   -0.9640 h1        1 MOL      0.044302
     48 H21         7.0390   -4.0620    1.5570 hc        1 MOL      0.080464
     49 H22         5.7160   -3.0260    1.6360 hc        1 MOL      0.080464
     50 N4          4.0340   -4.9960    0.1390 n         1 MOL     -0.540838
     51 C17         3.1140   -3.9020    0.4210 c3        1 MOL      0.123103
     52 C18         1.9620   -4.3010    1.3150 c         1 MOL      0.610941
     53 O9          1.5910   -5.4790    1.2410 o         1 MOL     -0.577249
     54 H23         3.6860   -5.9430    0.2270 hn        1 MOL      0.298448
     55 H24         2.7670   -3.4300   -0.4960 h1        1 MOL     -0.020987
     56 H25         3.6850   -3.1040    0.8980 h1        1 MOL     -0.020987
     57 N5          1.3980   -3.4570    2.2210 n         1 MOL     -0.363658
     58 C19         1.8400   -2.0860    2.6050 c3        1 MOL      0.296854
     59 C20         2.0240   -1.1010    1.3530 c         1 MOL      0.653325
     60 O10         3.1960   -0.7250    1.0820 o         1 MOL     -0.754280
     61 C21         2.9650   -2.0120    3.5880 c3        1 MOL     -0.389197
     62 C22         2.7710   -2.8510    4.8550 c         1 MOL      0.741063
     63 O11         1.7600   -2.7100    5.5210 o         1 MOL     -0.722939
     64 O12         3.5990   -3.7470    5.0150 o         1 MOL     -0.722939
     65 H26         0.6680   -3.9110    2.7490 hn        1 MOL      0.225146
     66 H27         0.9960   -1.5930    3.0860 h1        1 MOL     -0.025182
     67 H28         3.0740   -0.9760    3.9000 hc        1 MOL      0.066813
     68 H29         3.8160   -2.4250    3.0420 hc        1 MOL      0.066813
     69 N6          0.9910   -0.8190    0.5810 n         1 MOL     -0.476034
     70 C23        -0.3190   -1.3240    0.7020 c3        1 MOL      0.138165
     71 C24        -0.5420   -2.6580   -0.1270 c         1 MOL      0.273502
     72 O13         0.2570   -2.9990   -0.9700 o         1 MOL     -0.416351
     73 H30         1.1750   -0.1840   -0.1830 hn        1 MOL      0.240744
     74 H31        -1.0810   -0.6760    0.2610 h1        1 MOL      0.017580
     75 H32        -0.5260   -1.3740    1.7670 h1        1 MOL      0.017580
     76 N7         -1.7330   -3.3180    0.0930 n         1 MOL     -0.343456
     77 C25        -2.1450   -4.4780   -0.6950 c3        1 MOL     -0.300346
     78 C26        -2.6710   -3.9180   -2.0450 c         1 MOL      0.713971
     79 O14        -2.5630   -4.6890   -2.9540 o         1 MOL     -0.545533
     80 C27        -3.1620   -5.4140    0.0410 c3        1 MOL      0.287847
     81 C28        -2.6340   -5.9460    1.3750 c3        1 MOL     -0.325847
     82 C29        -3.5950   -6.7900    2.1970 c         1 MOL      0.669322
     83 N8         -4.8400   -6.8560    1.9540 n         1 MOL     -0.776473
     84 O15        -3.1290   -7.4130    3.1710 o         1 MOL     -0.583784
     85 H33        -2.2760   -3.0510    0.9090 hn        1 MOL      0.248538
     86 H34        -1.2550   -5.1020   -0.8070 h1        1 MOL      0.186388
     87 H35        -3.4610   -6.2330   -0.6150 hc        1 MOL     -0.038702
     88 H36        -4.1310   -4.9250    0.1060 hc        1 MOL     -0.038702
     89 H37        -2.4240   -5.1180    2.0500 hc        1 MOL      0.118156
     90 H38        -1.7770   -6.6070    1.3310 hc        1 MOL      0.118156
     91 H39        -5.2400   -6.4140    1.1340 hn        1 MOL      0.353575
     92 H40        -5.3760   -7.5660    2.4370 hn        1 MOL      0.353575
     93 N9         -3.1740   -2.6660   -2.1370 n         1 MOL     -0.559640
     94 C30        -3.5410   -1.9810   -3.4680 c3        1 MOL     -0.097074
     95 C31        -4.8750   -1.2750   -3.4720 c         1 MOL      0.693313
     96 O16        -5.4270   -1.0470   -4.5800 o         1 MOL     -0.587150
     97 C32        -2.3110   -1.0960   -3.8900 c3        1 MOL     -0.062524
     98 C33        -1.1020   -1.9570   -4.3460 c3        1 MOL     -0.083553
     99 C34        -1.7950   -0.0960   -2.7590 c3        1 MOL     -0.083553
    100 H41        -3.0840   -2.0870   -1.3160 hn        1 MOL      0.282670
    101 H42        -3.7980   -2.7790   -4.1590 h1        1 MOL      0.132881
    102 H43        -2.6490   -0.4890   -4.7300 hc        1 MOL      0.055695
    103 H44        -1.4310   -2.8830   -4.8200 hc        1 MOL      0.038728
    104 H45        -0.5410   -1.5340   -5.1730 hc        1 MOL      0.038728
    105 H46        -0.4470   -2.1910   -3.5120 hc        1 MOL      0.038728
    106 H47        -2.5770    0.6430   -2.5860 hc        1 MOL      0.038728
    107 H48        -1.7310   -0.6000   -1.7950 hc        1 MOL      0.038728
    108 H49        -0.8200    0.3160   -3.0250 hc        1 MOL      0.038728
    109 N10        -5.4580   -0.9430   -2.3030 n         1 MOL     -0.468252
    110 C35        -6.7770   -0.4100   -2.0730 c3        1 MOL      0.039141
    111 C36        -6.8160    0.9130   -1.2430 c         1 MOL      0.654648
    112 O17        -7.7610    1.7000   -1.4340 o         1 MOL     -0.563620
    113 C37        -7.6240   -1.5200   -1.4480 c3        1 MOL     -0.133807
    114 C38        -7.7150   -2.8270   -2.2400 c         1 MOL      0.687172
    115 N11        -8.2060   -2.8860   -3.3980 n         1 MOL     -0.809067
    116 O18        -7.2790   -3.8080   -1.6890 o         1 MOL     -0.589109
    117 H50        -4.9210   -1.1390   -1.4750 hn        1 MOL      0.256760
    118 H51        -7.2060   -0.1110   -3.0200 h1        1 MOL      0.046941
    119 H52        -8.6500   -1.1530   -1.5140 hc        1 MOL      0.035711
    120 H53        -7.4760   -1.8040   -0.4120 hc        1 MOL      0.035711
    121 H54        -8.5940   -2.0450   -3.8020 hn        1 MOL      0.381146
    122 H55        -8.0450   -3.7030   -3.9730 hn        1 MOL      0.381146
    123 N12        -5.8950    1.0630   -0.3150 n         1 MOL     -0.646139
    124 C39        -5.8980    2.1860    0.6120 c3        1 MOL      0.427622
    125 C40        -4.6560    3.0650    0.7290 c         1 MOL      0.379621
    126 O19        -3.5860    2.5640    0.5750 o         1 MOL     -0.503380
    127 C41        -6.3260    1.7660    2.0180 c3        1 MOL     -0.143176
    128 C42        -7.5430    0.8420    2.0000 ca        1 MOL      0.084858
    129 C43        -8.8430    1.2740    1.7300 ca        1 MOL     -0.186023
    130 C44        -7.3180   -0.4400    2.5540 ca        1 MOL     -0.186023
    131 C45        -9.9520    0.4980    1.9600 ca        1 MOL     -0.191972
    132 C46        -8.4420   -1.2880    2.7160 ca        1 MOL     -0.191972
    133 C47        -9.7620   -0.8680    2.4280 ca        1 MOL      0.254159
    134 O20       -10.8510   -1.6410    2.5660 oh        1 MOL     -0.494787
    135 H56        -5.2150    0.3510   -0.0960 hn        1 MOL      0.319010
    136 H57        -6.6810    2.8310    0.2020 h1        1 MOL     -0.034933
    137 H58        -6.6780    2.5850    2.6440 hc        1 MOL      0.064503
    138 H59        -5.5380    1.2320    2.5400 hc        1 MOL      0.064503
    139 H60        -8.9480    2.2840    1.3560 ha        1 MOL      0.141032
    140 H61        -6.3380   -0.6850    2.9440 ha        1 MOL      0.141032
    141 H62       -10.9370    0.8570    1.6930 ha        1 MOL      0.123254
    142 H63        -8.2710   -2.1850    3.2930 ha        1 MOL      0.123254
    143 H64       -10.7780   -2.5690    2.8130 ho        1 MOL      0.385780
    144 N13        -4.8410    4.3340    0.9700 n         1 MOL     -0.532141
    145 C48        -3.8650    5.4350    1.2000 c3        1 MOL      0.115538
    146 C49        -2.5900    5.5970    0.3380 c         1 MOL      0.516179
    147 O21        -1.9550    6.6740    0.4090 o         1 MOL     -0.534815
    148 C50        -3.5580    5.6580    2.6840 c3        1 MOL     -0.028225
    149 C51        -2.4790    4.6820    3.1830 c3        1 MOL     -0.317103
    150 C52        -2.3970    4.9720    4.6650 c         1 MOL      0.809919
    151 O22        -2.8370    4.1110    5.4290 o         1 MOL     -0.771686
    152 O23        -1.7710    5.9680    5.0760 o         1 MOL     -0.771686
    153 H65        -5.8180    4.5720    0.9980 hn        1 MOL      0.299626
    154 H66        -4.3280    6.3720    0.9000 h1        1 MOL      0.032466
    155 H67        -4.4580    5.6470    3.2850 hc        1 MOL      0.028668
    156 H68        -3.2070    6.6830    2.8050 hc        1 MOL      0.028668
    157 H69        -1.5050    4.9110    2.7460 hc        1 MOL      0.096654
    158 H70        -2.6200    3.6200    2.9970 hc        1 MOL      0.096654
    159 N14        -2.2330    4.6600   -0.5410 n         1 MOL     -0.361156
    160 C53        -1.0500    4.7880   -1.4580 c3        1 MOL     -0.192493
    161 C54        -1.3710    5.5600   -2.7950 c         1 MOL      0.558012
    162 O24        -0.4670    5.8810   -3.5430 o         1 MOL     -0.545973
    163 C55        -0.4350    3.4560   -1.9410 c3        1 MOL     -0.093180
    164 C56        -0.0190    2.4220   -0.8930 c3        1 MOL      0.327900
    165 C57         1.2520    2.9450   -0.1940 c         1 MOL      0.665239
    166 O25         2.2250    2.1240   -0.0060 o         1 MOL     -0.653721
    167 O26         1.3390    4.1250    0.2350 o         1 MOL     -0.653721
    168 H71        -2.6290    3.7360   -0.4570 hn        1 MOL      0.275426
    169 H72        -0.2680    5.4340   -1.0650 h1        1 MOL      0.185494
    170 H73         0.4380    3.6370   -2.5730 hc        1 MOL      0.017570
    171 H74        -1.0710    2.8370   -2.5820 hc        1 MOL      0.017570
    172 H75         0.2140    1.4890   -1.4060 hc        1 MOL     -0.116784
    173 H76        -0.7590    2.3010   -0.0990 hc        1 MOL     -0.116784
    174 N15        -2.6170    5.9000   -3.0480 n         1 MOL     -0.296934
    175 C58        -2.9700    6.8330   -4.1190 c3        1 MOL     -0.209000
    176 H77        -2.2410    7.6430   -4.1490 h1        1 MOL      0.096657
    177 H78        -2.9680    6.3090   -5.0750 h1        1 MOL      0.096657
    178 H79        -3.9620    7.2450   -3.9320 h1        1 MOL      0.096657
    179 H80        -3.2570    5.7780   -2.2750 hn        1 MOL      0.204836
    180 Ca1         4.4070    1.7350    1.3130 Ca        1 MOL      1.839665
    181 O27         5.7670    0.0790    2.8480 oh        1 MOL     -0.850186
    182 H81         5.8220    0.0430    3.8100 ho        1 MOL      0.400859
    183 H82         6.4390   -0.5420    2.5530 ho        1 MOL      0.400859
    184 O28         3.5940    4.4820    1.4820 oh        1 MOL     -0.850186
    185 H83         3.4550    5.1960    2.1160 ho        1 MOL      0.400859
    186 H84         2.7270    4.3420    1.0910 ho        1 MOL      0.400859
    187 O29         5.4610    3.0310    3.6310 oh        1 MOL     -0.850186
    188 H85         6.3870    3.2440    3.7150 ho        1 MOL      0.400859
    189 H86         5.1280    3.0220    4.5270 ho        1 MOL      0.400859
    190 O30         2.2840    1.6670    3.1540 oh        1 MOL     -0.850186
    191 H87         2.1980    0.9760    3.8150 ho        1 MOL      0.400859
    192 H88         1.7690    2.3950    3.4910 ho        1 MOL      0.400859
@<TRIPOS>BOND
     1    1    2 1   
     2    1    4 1   
     3    1    5 1   
     4    1    6 1   
     5    2    3 2   
     6    2    7 1   
     7    7    8 1   
     8    7   15 1   
     9    8    9 1   
    10    8   11 1   
    11    8   16 1   
    12    9   10 2   
    13    9   19 1   
    14   11   12 1   
    15   11   17 1   
    16   11   18 1   
    17   12   13 1   
    18   12   14 1   
    19   19   20 1   
    20   19   27 1   
    21   20   21 1   
    22   20   23 1   
    23   20   28 1   
    24   21   22 2   
    25   21   38 1   
    26   23   24 1   
    27   23   25 1   
    28   23   29 1   
    29   24   26 1   
    30   24   30 1   
    31   24   31 1   
    32   25   32 1   
    33   25   33 1   
    34   25   34 1   
    35   26   35 1   
    36   26   36 1   
    37   26   37 1   
    38   38   39 1   
    39   38   46 1   
    40   39   40 1   
    41   39   42 1   
    42   39   47 1   
    43   40   41 2   
    44   40   50 1   
    45   42   43 1   
    46   42   48 1   
    47   42   49 1   
    48   43   44 1   
    49   43   45 1   
    50   50   51 1   
    51   50   54 1   
    52   51   52 1   
    53   51   55 1   
    54   51   56 1   
    55   52   53 2   
    56   52   57 1   
    57   57   58 1   
    58   57   65 1   
    59   58   59 1   
    60   58   61 1   
    61   58   66 1   
    62   59   60 2   
    63   59   69 1   
    64   61   62 1   
    65   61   67 1   
    66   61   68 1   
    67   62   63 1   
    68   62   64 1   
    69   69   70 1   
    70   69   73 1   
    71   70   71 1   
    72   70   74 1   
    73   70   75 1   
    74   71   72 2   
    75   71   76 1   
    76   76   77 1   
    77   76   85 1   
    78   77   78 1   
    79   77   80 1   
    80   77   86 1   
    81   78   79 2   
    82   78   93 1   
    83   80   81 1   
    84   80   87 1   
    85   80   88 1   
    86   81   82 1   
    87   81   89 1   
    88   81   90 1   
    89   82   83 1   
    90   82   84 2   
    91   83   91 1   
    92   83   92 1   
    93   93   94 1   
    94   93  100 1   
    95   94   95 1   
    96   94   97 1   
    97   94  101 1   
    98   95   96 2   
    99   95  109 1   
   100   97   98 1   
   101   97   99 1   
   102   97  102 1   
   103   98  103 1   
   104   98  104 1   
   105   98  105 1   
   106   99  106 1   
   107   99  107 1   
   108   99  108 1   
   109  109  110 1   
   110  109  117 1   
   111  110  111 1   
   112  110  113 1   
   113  110  118 1   
   114  111  112 2   
   115  111  123 1   
   116  113  114 1   
   117  113  119 1   
   118  113  120 1   
   119  114  115 1   
   120  114  116 2   
   121  115  121 1   
   122  115  122 1   
   123  123  124 1   
   124  123  135 1   
   125  124  125 1   
   126  124  127 1   
   127  124  136 1   
   128  125  126 2   
   129  125  144 1   
   130  127  128 1   
   131  127  137 1   
   132  127  138 1   
   133  128  129 ar  
   134  128  130 ar  
   135  129  131 ar  
   136  129  139 1   
   137  130  132 ar  
   138  130  140 1   
   139  131  133 ar  
   140  131  141 1   
   141  132  133 ar  
   142  132  142 1   
   143  133  134 1   
   144  134  143 1   
   145  144  145 1   
   146  144  153 1   
   147  145  146 1   
   148  145  148 1   
   149  145  154 1   
   150  146  147 2   
   151  146  159 1   
   152  148  149 1   
   153  148  155 1   
   154  148  156 1   
   155  149  150 1   
   156  149  157 1   
   157  149  158 1   
   158  150  151 1   
   159  150  152 1   
   160  159  160 1   
   161  159  168 1   
   162  160  161 1   
   163  160  163 1   
   164  160  169 1   
   165  161  162 2   
   166  161  174 1   
   167  163  164 1   
   168  163  170 1   
   169  163  171 1   
   170  164  165 1   
   171  164  172 1   
   172  164  173 1   
   173  165  166 1   
   174  165  167 1   
   175  174  175 1   
   176  174  179 1   
   177  175  176 1   
   178  175  177 1   
   179  175  178 1   
   180  181  182 1   
   181  181  183 1   
   182  184  185 1   
   183  184  186 1   
   184  187  188 1   
   185  187  189 1   
   186  190  191 1   
   187  190  192 1   
@<TRIPOS>SUBSTRUCTURE
     1 MOL         1 TEMP              0 ****  ****    0 ROOT
