@<TRIPOS>MOLECULE
MOL
  192   187     1     0     0
SMALL
resp


@<TRIPOS>ATOM
      1 C1        -10.2620   -1.2620    0.3560 c3        1 MOL     -0.461272
      2 C2         -8.8250   -0.6740   -0.0740 c         1 MOL      0.681536
      3 O1         -7.8260   -0.8230    0.6250 o         1 MOL     -0.667530
      4 H1        -10.4000   -1.1320    1.4300 hc        1 MOL      0.122380
      5 H2        -11.0480   -0.7280   -0.1780 hc        1 MOL      0.122380
      6 H3        -10.3100   -2.3220    0.1090 hc        1 MOL      0.122380
      7 N1         -8.6740   -0.0110   -1.2020 n         1 MOL     -0.401455
      8 C3         -7.4990    0.7570   -1.6080 c3        1 MOL      0.005242
      9 C4         -7.2620    2.0500   -0.8340 c         1 MOL      0.502927
     10 O2         -7.4020    3.1400   -1.3590 o         1 MOL     -0.435390
     11 C5         -7.7200    1.0570   -3.0850 c3        1 MOL     -0.143291
     12 C6         -9.1120    1.4390   -3.5010 c         1 MOL      0.705389
     13 O3        -10.0400    0.6090   -3.5880 o         1 MOL     -0.664803
     14 O4         -9.3230    2.6850   -3.7640 o         1 MOL     -0.664803
     15 H4         -9.4420   -0.0100   -1.8570 hn        1 MOL      0.212825
     16 H5         -6.5800    0.1840   -1.4960 h1        1 MOL      0.105386
     17 H6         -7.4080    0.2000   -3.6820 hc        1 MOL      0.035429
     18 H7         -7.0870    1.8710   -3.4490 hc        1 MOL      0.035429
     19 N2         -6.7350    1.9300    0.4020 n         1 MOL     -0.423159
     20 C7         -6.3010    3.0630    1.2910 c3        1 MOL     -0.021454
     21 C8         -4.8390    3.4270    1.1770 c         1 MOL      0.628196
     22 O5         -4.4790    4.5790    1.2160 o         1 MOL     -0.567076
     23 C9         -6.7140    2.8260    2.7660 c3        1 MOL     -0.098363
     24 C10        -8.1530    2.4180    3.0450 c3        1 MOL     -0.005185
     25 C11        -9.3130    3.3360    2.5780 c3        1 MOL      0.006719
     26 C12       -10.6910    2.9280    3.0770 c3        1 MOL      0.022830
     27 N3        -10.6860    2.3710    4.4140 n4        1 MOL     -0.215559
     28 H8         -6.6600    1.0180    0.8280 hn        1 MOL      0.286869
     29 H9         -6.7940    3.9810    0.9810 h1        1 MOL      0.077026
     30 H10        -6.3970    3.6360    3.4250 hc        1 MOL      0.046535
     31 H11        -6.0620    2.0650    3.1990 hc        1 MOL      0.046535
     32 H12        -8.1790    2.4120    4.1380 hc        1 MOL     -0.007364
     33 H13        -8.2690    1.4120    2.6370 hc        1 MOL     -0.007364
     34 H14        -9.3340    3.5540    1.5100 hc        1 MOL      0.052524
     35 H15        -9.1360    4.2860    3.0750 hc        1 MOL      0.052524
     36 H16       -10.9810    2.0660    2.4700 hx        1 MOL      0.064173
     37 H17       -11.4790    3.6870    3.0850 hx        1 MOL      0.064173
     38 H18       -11.6290    2.1270    4.6670 hn        1 MOL      0.244715
     39 H19       -10.1550    1.5150    4.4310 hn        1 MOL      0.244715
     40 H20       -10.3980    3.1190    5.0310 hn        1 MOL      0.244715
     41 N4         -3.9910    2.4940    0.8400 n         1 MOL     -0.487451
     42 C13        -3.9980    1.0280    1.1840 c3        1 MOL      0.222327
     43 C14        -3.9190    0.0310    0.0010 c         1 MOL      0.262149
     44 O6         -3.7730    0.3740   -1.1780 o         1 MOL     -0.490985
     45 C15        -2.8620    0.6970    2.2230 c3        1 MOL     -0.304011
     46 C16        -1.3850    1.0790    1.8720 c         1 MOL      0.699620
     47 O7         -0.8110    0.6590    0.8160 o         1 MOL     -0.673800
     48 O8         -0.7510    1.8340    2.6520 o         1 MOL     -0.673800
     49 H21        -3.1310    2.8500    0.4250 hn        1 MOL      0.353422
     50 H22        -4.9740    0.7370    1.5690 h1        1 MOL      0.023551
     51 H23        -2.8970   -0.3790    2.3850 hc        1 MOL      0.067281
     52 H24        -3.1040    1.1420    3.2000 hc        1 MOL      0.067281
     53 N5         -4.1360   -1.1990    0.2740 n         1 MOL     -0.219182
     54 C17        -4.0830   -2.3430   -0.6050 c3        1 MOL     -0.014437
     55 C18        -2.7220   -2.6490   -1.1550 c         1 MOL      0.450439
     56 O9         -1.6630   -2.2190   -0.6180 o         1 MOL     -0.562942
     57 H25        -4.2840   -1.3960    1.2580 hn        1 MOL      0.256033
     58 H26        -4.7530   -2.1220   -1.4270 h1        1 MOL      0.072678
     59 H27        -4.4910   -3.2510   -0.1570 h1        1 MOL      0.072678
     60 N6         -2.7490   -3.2810   -2.3130 n         1 MOL     -0.465759
     61 C19        -1.5640   -3.6190   -3.1200 c3        1 MOL      0.443521
     62 C20        -1.7620   -4.9420   -3.8710 c         1 MOL      0.261218
     63 O10        -2.8720   -5.2570   -4.4420 o         1 MOL     -0.496761
     64 C21        -1.2560   -2.4690   -4.0660 c3        1 MOL     -0.218127
     65 C22         0.1160   -1.8030   -3.9420 c         1 MOL      0.653069
     66 O11         0.4860   -0.9650   -4.8260 o         1 MOL     -0.676952
     67 O12         0.8110   -2.0180   -2.9060 o         1 MOL     -0.676952
     68 H28        -3.6410   -3.5320   -2.7250 hn        1 MOL      0.271201
     69 H29        -0.7400   -3.8160   -2.4330 h1        1 MOL     -0.001071
     70 H30        -2.0660   -1.7330   -4.0590 hc        1 MOL      0.059714
     71 H31        -1.3300   -2.9050   -5.0580 hc        1 MOL      0.059714
     72 N7         -0.6220   -5.6470   -4.1250 n         1 MOL     -0.352531
     73 C23         0.7670   -5.3570   -3.7380 c3        1 MOL     -0.020429
     74 C24         1.0410   -5.5900   -2.2560 c         1 MOL      0.513206
     75 O13         0.1970   -6.0460   -1.4720 o         1 MOL     -0.480861
     76 H32        -0.8530   -6.4210   -4.7330 hn        1 MOL      0.297029
     77 H33         0.9520   -4.2960   -3.8470 h1        1 MOL      0.069506
     78 H34         1.4720   -5.9260   -4.3580 h1        1 MOL      0.069506
     79 N8          2.2810   -5.2790   -1.8720 n         1 MOL     -0.458867
     80 C25         2.7800   -5.2060   -0.5370 c3        1 MOL     -0.033388
     81 C26         2.0420   -4.1910    0.3370 c         1 MOL      0.404909
     82 O14         1.4430   -3.2480   -0.2150 o         1 MOL     -0.308966
     83 C27         4.3080   -4.8870   -0.6280 c3        1 MOL      0.232439
     84 C28         5.1480   -4.6640    0.6560 c3        1 MOL     -0.257191
     85 O15         4.5730   -3.6970   -1.3370 oh        1 MOL     -0.604167
     86 H35         2.9910   -5.1180   -2.5790 hn        1 MOL      0.304104
     87 H36         2.7140   -6.1630   -0.0350 h1        1 MOL      0.093301
     88 H37         4.8710   -5.6690   -1.1380 h1        1 MOL      0.046606
     89 H38         5.5190   -3.5350   -1.3180 ho        1 MOL      0.405744
     90 H39         5.1270   -5.5990    1.2190 hc        1 MOL      0.076654
     91 H40         6.2180   -4.6290    0.4390 hc        1 MOL      0.076654
     92 H41         4.7440   -3.8310    1.2220 hc        1 MOL      0.076654
     93 N9          1.8930   -4.4290    1.7190 n         1 MOL     -0.426621
     94 C29         1.2070   -3.5980    2.6430 c3        1 MOL     -0.318028
     95 C30         1.7940   -2.1670    2.6570 c         1 MOL      0.786570
     96 O16         1.4360   -1.2990    1.8160 o         1 MOL     -0.661558
     97 C31        -0.3120   -3.6010    2.4310 c3        1 MOL      0.476230
     98 C32        -1.0030   -4.9210    2.1740 c3        1 MOL      0.159908
     99 C33        -0.9380   -2.8770    3.6450 c3        1 MOL     -0.385185
    100 C34        -2.5120   -4.9050    1.9240 c3        1 MOL     -0.503824
    101 H42         2.3360   -5.2860    2.0100 hn        1 MOL      0.291666
    102 H43         1.4730   -4.1260    3.5550 h1        1 MOL      0.117766
    103 H44        -0.4670   -3.0060    1.5250 hc        1 MOL     -0.160303
    104 H45        -0.7600   -5.6260    2.9690 hc        1 MOL     -0.039217
    105 H46        -0.5300   -5.3930    1.3140 hc        1 MOL     -0.039217
    106 H47        -2.0160   -2.7830    3.6840 hc        1 MOL      0.073397
    107 H48        -0.4870   -3.4420    4.4650 hc        1 MOL      0.073397
    108 H49        -0.5170   -1.8770    3.7980 hc        1 MOL      0.073397
    109 H50        -2.8020   -5.9060    1.5940 hc        1 MOL      0.136897
    110 H51        -3.0940   -4.4640    2.7250 hc        1 MOL      0.136897
    111 H52        -2.6940   -4.3670    0.9950 hc        1 MOL      0.136897
    112 N10         2.6400   -1.8170    3.6150 n         1 MOL     -0.519182
    113 C35         3.0500   -0.4430    3.9430 c3        1 MOL     -0.212799
    114 C36         4.3490   -0.0280    3.1930 c         1 MOL      0.585545
    115 O17         4.5070    1.1780    2.9660 o         1 MOL     -0.538105
    116 C37         2.9650   -0.2430    5.4090 c3        1 MOL      0.439607
    117 C38         4.1230   -0.9150    6.2000 c3        1 MOL     -0.419452
    118 O18         1.8400   -0.7980    6.0130 oh        1 MOL     -0.602827
    119 H53         3.0780   -2.5560    4.1370 hn        1 MOL      0.303158
    120 H54         2.2390    0.1630    3.5340 h1        1 MOL      0.168802
    121 H55         2.8470    0.8310    5.5750 h1        1 MOL      0.012501
    122 H56         1.0640   -0.2810    5.7680 ho        1 MOL      0.398079
    123 H57         3.9800   -1.9940    6.1600 hc        1 MOL      0.109519
    124 H58         5.0600   -0.5090    5.8110 hc        1 MOL      0.109519
    125 H59         4.0280   -0.5060    7.2050 hc        1 MOL      0.109519
    126 N11         5.2550   -0.9770    2.8190 n         1 MOL     -0.214425
    127 C39         6.4940   -0.6020    2.1100 c3        1 MOL     -0.413358
    128 C40         6.3740    0.2860    0.8400 c         1 MOL      0.730681
    129 O19         5.7460    0.0210   -0.1640 o         1 MOL     -0.532847
    130 C41         7.3210   -1.8170    1.8400 c3        1 MOL      0.463244
    131 C42         8.7830   -1.4700    1.4370 c3        1 MOL     -0.246431
    132 O20         7.4520   -2.6570    2.9280 oh        1 MOL     -0.618252
    133 H60         5.0490   -1.9100    3.1380 hn        1 MOL      0.197524
    134 H61         7.0410    0.0430    2.8070 h1        1 MOL      0.099188
    135 H62         6.8230   -2.2880    0.9950 h1        1 MOL     -0.019354
    136 H63         7.4750   -2.1510    3.7430 ho        1 MOL      0.402119
    137 H64         9.3170   -1.1000    2.3130 hc        1 MOL      0.063488
    138 H65         9.3360   -2.3750    1.1810 hc        1 MOL      0.063488
    139 H66         8.8020   -0.7020    0.6580 hc        1 MOL      0.063488
    140 N12         6.9140    1.5190    1.0170 n         1 MOL     -0.468240
    141 C43         6.9440    2.6890    0.0680 c3        1 MOL     -0.028336
    142 C44         5.5740    2.9750   -0.6610 c         1 MOL      0.639107
    143 O21         5.4750    2.9450   -1.8610 o         1 MOL     -0.527439
    144 C45         8.1540    2.4660   -0.9400 c3        1 MOL     -0.206103
    145 C46         8.6060    3.7920   -1.5780 c3        1 MOL      0.370161
    146 C47         9.1270    3.7690   -3.0440 c3        1 MOL     -0.251428
    147 C48         7.9210    4.0230   -4.0100 c3        1 MOL      0.001970
    148 N13         7.7760    5.4840   -4.3180 n4        1 MOL     -0.244360
    149 H67         7.3180    1.6920    1.9230 hn        1 MOL      0.284721
    150 H68         7.1020    3.5990    0.6410 h1        1 MOL      0.072028
    151 H69         7.9390    1.6930   -1.6870 hc        1 MOL      0.065878
    152 H70         8.9750    2.0440   -0.3610 hc        1 MOL      0.065878
    153 H71         9.4450    4.1390   -0.9630 hc        1 MOL     -0.078075
    154 H72         7.8500    4.5670   -1.4540 hc        1 MOL     -0.078075
    155 H73         9.6250    2.8170   -3.2270 hc        1 MOL      0.079616
    156 H74         9.8980    4.5150   -3.2230 hc        1 MOL      0.079616
    157 H75         7.0380    3.5140   -3.6230 hx        1 MOL      0.104836
    158 H76         8.1120    3.6250   -5.0020 hx        1 MOL      0.104836
    159 H77         8.5840    5.8390   -4.7880 hn        1 MOL      0.285372
    160 H78         6.9520    5.7570   -4.8260 hn        1 MOL      0.285372
    161 H79         7.5430    6.0210   -3.4920 hn        1 MOL      0.285372
    162 N14         4.5690    3.1590    0.2000 n         1 MOL     -0.549933
    163 C49         3.2340    3.4460   -0.4410 c3        1 MOL      0.187621
    164 C50         2.1150    2.7050    0.3460 c         1 MOL      0.394323
    165 O22         1.6300    1.6640   -0.1320 o         1 MOL     -0.564097
    166 C51         2.9690    5.0080   -0.5590 c3        1 MOL     -0.061705
    167 C52         3.7600    5.6730   -1.6610 c3        1 MOL     -0.212027
    168 C53         3.6790    7.1470   -1.9210 c         1 MOL      0.722227
    169 O23         4.5580    7.8560   -1.4590 o         1 MOL     -0.706212
    170 O24         2.7420    7.6990   -2.5880 o         1 MOL     -0.706212
    171 H80         4.7000    2.9700    1.1800 hn        1 MOL      0.335860
    172 H81         3.2350    3.0420   -1.4540 h1        1 MOL      0.109090
    173 H82         3.2440    5.4790    0.3730 hc        1 MOL      0.061227
    174 H83         1.9240    5.2610   -0.7760 hc        1 MOL      0.061227
    175 H84         3.5000    5.1320   -2.5770 hc        1 MOL      0.007627
    176 H85         4.8130    5.4810   -1.4610 hc        1 MOL      0.007627
    177 N15         1.7240    3.0680    1.5450 n         1 MOL     -0.350093
    178 C54         2.0330    4.2200    2.4500 c3        1 MOL     -0.036025
    179 H86         2.5330    3.8530    3.3460 h1        1 MOL      0.047805
    180 H87         2.6840    4.9240    1.9320 h1        1 MOL      0.047805
    181 H88         1.1060    4.7190    2.7310 h1        1 MOL      0.047805
    182 H89         1.0530    2.4310    1.9420 hn        1 MOL      0.334401
    183 Ca1         0.6260   -0.7090   -0.7220 Ca        1 MOL      1.791464
    184 O25         3.3040   -1.3170   -0.9900 oh        1 MOL     -0.911620
    185 H90         3.7720   -2.1200   -1.2190 ho        1 MOL      0.429630
    186 H91         3.9850   -0.6990   -0.7360 ho        1 MOL      0.429630
    187 O26        -1.3280    0.5220   -2.3820 oh        1 MOL     -0.911620
    188 H92        -1.3950    1.1710   -3.0860 ho        1 MOL      0.429630
    189 H93        -2.2140    0.1750   -2.2990 ho        1 MOL      0.429630
    190 O27         1.5390    0.9020   -2.9600 oh        1 MOL     -0.911620
    191 H94         1.1380    1.7140   -3.2570 ho        1 MOL      0.429630
    192 H95         1.2440    0.2440   -3.5990 ho        1 MOL      0.429630
@<TRIPOS>BOND
     1    1    2 1   
     2    1    4 1   
     3    1    5 1   
     4    1    6 1   
     5    2    3 2   
     6    2    7 1   
     7    7    8 1   
     8    7   15 1   
     9    8    9 1   
    10    8   11 1   
    11    8   16 1   
    12    9   10 2   
    13    9   19 1   
    14   11   12 1   
    15   11   17 1   
    16   11   18 1   
    17   12   13 1   
    18   12   14 1   
    19   19   20 1   
    20   19   28 1   
    21   20   21 1   
    22   20   23 1   
    23   20   29 1   
    24   21   22 2   
    25   21   41 1   
    26   23   24 1   
    27   23   30 1   
    28   23   31 1   
    29   24   25 1   
    30   24   32 1   
    31   24   33 1   
    32   25   26 1   
    33   25   34 1   
    34   25   35 1   
    35   26   27 1   
    36   26   36 1   
    37   26   37 1   
    38   27   38 1   
    39   27   39 1   
    40   27   40 1   
    41   41   42 1   
    42   41   49 1   
    43   42   43 1   
    44   42   45 1   
    45   42   50 1   
    46   43   44 2   
    47   43   53 1   
    48   45   46 1   
    49   45   51 1   
    50   45   52 1   
    51   46   47 1   
    52   46   48 1   
    53   53   54 1   
    54   53   57 1   
    55   54   55 1   
    56   54   58 1   
    57   54   59 1   
    58   55   56 2   
    59   55   60 1   
    60   60   61 1   
    61   60   68 1   
    62   61   62 1   
    63   61   64 1   
    64   61   69 1   
    65   62   63 2   
    66   62   72 1   
    67   64   65 1   
    68   64   70 1   
    69   64   71 1   
    70   65   66 1   
    71   65   67 1   
    72   72   73 1   
    73   72   76 1   
    74   73   74 1   
    75   73   77 1   
    76   73   78 1   
    77   74   75 2   
    78   74   79 1   
    79   79   80 1   
    80   79   86 1   
    81   80   81 1   
    82   80   83 1   
    83   80   87 1   
    84   81   82 2   
    85   81   93 1   
    86   83   84 1   
    87   83   85 1   
    88   83   88 1   
    89   84   90 1   
    90   84   91 1   
    91   84   92 1   
    92   85   89 1   
    93   93   94 1   
    94   93  101 1   
    95   94   95 1   
    96   94   97 1   
    97   94  102 1   
    98   95   96 2   
    99   95  112 1   
   100   97   98 1   
   101   97   99 1   
   102   97  103 1   
   103   98  100 1   
   104   98  104 1   
   105   98  105 1   
   106   99  106 1   
   107   99  107 1   
   108   99  108 1   
   109  100  109 1   
   110  100  110 1   
   111  100  111 1   
   112  112  113 1   
   113  112  119 1   
   114  113  114 1   
   115  113  116 1   
   116  113  120 1   
   117  114  115 2   
   118  114  126 1   
   119  116  117 1   
   120  116  118 1   
   121  116  121 1   
   122  117  123 1   
   123  117  124 1   
   124  117  125 1   
   125  118  122 1   
   126  126  127 1   
   127  126  133 1   
   128  127  128 1   
   129  127  130 1   
   130  127  134 1   
   131  128  129 2   
   132  128  140 1   
   133  130  131 1   
   134  130  132 1   
   135  130  135 1   
   136  131  137 1   
   137  131  138 1   
   138  131  139 1   
   139  132  136 1   
   140  140  141 1   
   141  140  149 1   
   142  141  142 1   
   143  141  144 1   
   144  141  150 1   
   145  142  143 2   
   146  142  162 1   
   147  144  145 1   
   148  144  151 1   
   149  144  152 1   
   150  145  146 1   
   151  145  153 1   
   152  145  154 1   
   153  146  147 1   
   154  146  155 1   
   155  146  156 1   
   156  147  148 1   
   157  147  157 1   
   158  147  158 1   
   159  148  159 1   
   160  148  160 1   
   161  148  161 1   
   162  162  163 1   
   163  162  171 1   
   164  163  164 1   
   165  163  166 1   
   166  163  172 1   
   167  164  165 2   
   168  164  177 1   
   169  166  167 1   
   170  166  173 1   
   171  166  174 1   
   172  167  168 1   
   173  167  175 1   
   174  167  176 1   
   175  168  169 1   
   176  168  170 1   
   177  177  178 1   
   178  177  182 1   
   179  178  179 1   
   180  178  180 1   
   181  178  181 1   
   182  184  185 1   
   183  184  186 1   
   184  187  188 1   
   185  187  189 1   
   186  190  191 1   
   187  190  192 1   
@<TRIPOS>SUBSTRUCTURE
     1 MOL         1 TEMP              0 ****  ****    0 ROOT
