@<TRIPOS>MOLECULE
MOL
  178   175     1     0     0
SMALL
resp


@<TRIPOS>ATOM
      1 C1          1.1320    6.6610   -2.0480 c3        1 MOL     -0.424246
      2 C2          2.4270    6.8520   -1.3380 c         1 MOL      0.701620
      3 O1          2.4820    7.4310   -0.2680 o         1 MOL     -0.577419
      4 H1          0.3160    7.0040   -1.4120 hc        1 MOL      0.106125
      5 H2          1.1370    7.2340   -2.9740 hc        1 MOL      0.106125
      6 H3          0.9940    5.6040   -2.2750 hc        1 MOL      0.106125
      7 N1          3.5390    6.2390   -1.9210 n         1 MOL     -0.534934
      8 C3          4.9010    6.1270   -1.2710 c3        1 MOL     -0.121514
      9 C4          5.0310    4.9030   -0.3720 c         1 MOL      0.680949
     10 O2          5.0320    3.7760   -0.8300 o         1 MOL     -0.567468
     11 C5          5.9880    6.1120   -2.4050 c3        1 MOL     -0.037685
     12 C6          7.4180    6.2290   -2.0460 c         1 MOL      0.649435
     13 O3          8.1240    6.8370   -2.8420 o         1 MOL     -0.722275
     14 O4          7.8170    5.6330   -0.9920 o         1 MOL     -0.722275
     15 H4          3.3740    5.7610   -2.8010 hn        1 MOL      0.295233
     16 H5          5.1820    6.9900   -0.6690 h1        1 MOL      0.105625
     17 H6          5.7080    6.8280   -3.1790 hc        1 MOL      0.008675
     18 H7          5.9080    5.2660   -3.0880 hc        1 MOL      0.008675
     19 N2          5.2620    5.1280    0.9440 n         1 MOL     -0.690989
     20 C7          5.2470    3.9940    1.9290 c3        1 MOL      0.580704
     21 C8          3.8110    3.4530    2.1100 c         1 MOL      0.286141
     22 O5          2.8700    3.9880    1.5730 o         1 MOL     -0.471065
     23 C9          6.0490    4.4910    3.2190 c3        1 MOL     -0.395701
     24 H8          5.1610    6.0780    1.2940 hn        1 MOL      0.333647
     25 H9          5.7770    3.1150    1.5720 h1        1 MOL      0.006704
     26 H10         6.3570    3.6380    3.8310 hc        1 MOL      0.089463
     27 H11         6.9680    4.9270    2.8280 hc        1 MOL      0.089463
     28 H12         5.4450    5.2510    3.7230 hc        1 MOL      0.089463
     29 N3          3.5500    2.2540    2.7180 n         1 MOL     -0.344155
     30 C10         4.5040    1.1810    3.1030 c3        1 MOL      0.003220
     31 C11         4.6460    0.1030    2.0240 c         1 MOL      0.541891
     32 O6          3.6430   -0.0610    1.3110 o         1 MOL     -0.451105
     33 C12         4.0660    0.6140    4.4090 c3        1 MOL     -0.270551
     34 C13         2.6100    0.1820    4.5480 c         1 MOL      0.659634
     35 O7          2.1490   -0.1950    5.6700 o         1 MOL     -0.653768
     36 O8          1.8170    0.2400    3.5150 o         1 MOL     -0.653768
     37 H13         2.5650    2.0700    2.8560 hn        1 MOL      0.280072
     38 H14         5.4940    1.6140    3.2350 h1        1 MOL      0.027499
     39 H15         4.1590    1.4330    5.1040 hc        1 MOL      0.058406
     40 H16         4.8230   -0.1100    4.7120 hc        1 MOL      0.058406
     41 N4          5.7580   -0.6290    1.9450 n         1 MOL     -0.542603
     42 C14         6.0530   -1.6320    0.9510 c3        1 MOL      0.013602
     43 C15         6.9050   -1.1600   -0.1850 c         1 MOL      0.623209
     44 O9          7.3470    0.0250   -0.2160 o         1 MOL     -0.510199
     45 H17         6.3550   -0.5620    2.7580 hn        1 MOL      0.342515
     46 H18         5.0940   -2.0010    0.5850 h1        1 MOL      0.048429
     47 H19         6.6790   -2.3460    1.4920 h1        1 MOL      0.048429
     48 N5          7.0940   -1.9250   -1.2600 n         1 MOL     -0.652860
     49 C16         6.6530   -3.3530   -1.4230 c3        1 MOL      0.433474
     50 C17         5.3720   -3.4830   -2.3000 c         1 MOL      0.469974
     51 O10         4.7200   -2.5310   -2.7700 o         1 MOL     -0.500225
     52 C18         7.9510   -4.0480   -1.9650 c3        1 MOL     -0.382706
     53 C19         9.1520   -3.9630   -1.0010 c         1 MOL      0.686701
     54 N6         10.3660   -3.8090   -1.5200 n         1 MOL     -0.740788
     55 O11         8.9780   -3.9850    0.2110 o         1 MOL     -0.527844
     56 H20         7.5170   -1.3890   -2.0030 hn        1 MOL      0.346822
     57 H21         6.4280   -3.7700   -0.4480 h1        1 MOL     -0.060914
     58 H22         8.0950   -3.5680   -2.9330 hc        1 MOL      0.077837
     59 H23         7.6730   -5.0920   -2.1320 hc        1 MOL      0.077837
     60 H24        10.5310   -4.2010   -2.4330 hn        1 MOL      0.352420
     61 H25        11.1530   -3.6840   -0.8970 hn        1 MOL      0.352420
     62 N7          4.9850   -4.6800   -2.6110 n         1 MOL     -0.412769
     63 C20         3.7200   -5.0780   -3.2710 c3        1 MOL     -0.267219
     64 C21         2.3390   -5.1020   -2.5600 c         1 MOL      0.576334
     65 O12         1.3410   -5.0520   -3.1890 o         1 MOL     -0.575618
     66 H26         5.5580   -5.4720   -2.3550 hn        1 MOL      0.282446
     67 H27         3.8250   -6.0630   -3.7190 h1        1 MOL      0.155110
     68 H28         3.5880   -4.4230   -4.1400 h1        1 MOL      0.155110
     69 N8          2.2820   -5.0900   -1.2710 n         1 MOL     -0.289994
     70 C22         0.9830   -5.3170   -0.5430 c3        1 MOL      0.019695
     71 C23         0.0060   -4.1470   -0.4520 c         1 MOL      0.997917
     72 O13         0.3170   -3.1230    0.0590 o         1 MOL     -0.823459
     73 C24         1.1360   -5.9450    0.8420 c3        1 MOL      0.159679
     74 C25        -0.1350   -6.2130    1.6400 c3        1 MOL     -0.156810
     75 O14         1.9190   -7.1390    0.7260 oh        1 MOL     -0.666938
     76 H29         3.1360   -5.0000   -0.7380 hn        1 MOL      0.220386
     77 H30         0.5630   -6.1310   -1.1260 h1        1 MOL      0.032320
     78 H31         1.7500   -5.2510    1.4160 h1        1 MOL      0.046463
     79 H32         1.4950   -7.8380    1.2200 ho        1 MOL      0.409829
     80 H33         0.0770   -6.9740    2.4000 hc        1 MOL      0.050906
     81 H34        -0.3790   -5.3140    2.2120 hc        1 MOL      0.050906
     82 H35        -1.0010   -6.4880    1.0440 hc        1 MOL      0.050906
     83 N9         -1.1930   -4.2570   -0.9910 n         1 MOL     -0.473799
     84 C26        -2.3550   -3.3530   -0.9270 c3        1 MOL     -0.127720
     85 C27        -3.1470   -3.5630    0.3810 c         1 MOL      0.552313
     86 O15        -3.6580   -4.6430    0.6720 o         1 MOL     -0.594299
     87 C28        -3.1950   -3.5350   -2.2290 c3        1 MOL      0.244335
     88 C29        -4.5700   -2.7980   -2.1430 c3        1 MOL     -0.050942
     89 C30        -2.3570   -3.2230   -3.4710 c3        1 MOL     -0.391421
     90 C31        -5.3220   -2.8230   -3.4920 c3        1 MOL     -0.063562
     91 H36        -1.3720   -5.1890   -1.3380 hn        1 MOL      0.225244
     92 H37        -2.0780   -2.3000   -0.9300 h1        1 MOL      0.172020
     93 H38        -3.4380   -4.6040   -2.2060 hc        1 MOL     -0.019370
     94 H39        -4.5070   -1.7420   -1.8650 hc        1 MOL      0.026318
     95 H40        -5.0860   -3.3340   -1.3380 hc        1 MOL      0.026318
     96 H41        -1.3030   -3.5040   -3.4470 hc        1 MOL      0.099438
     97 H42        -2.8330   -3.7270   -4.3090 hc        1 MOL      0.099438
     98 H43        -2.3830   -2.2050   -3.8510 hc        1 MOL      0.099438
     99 H44        -5.2250   -3.7970   -3.9750 hc        1 MOL      0.001162
    100 H45        -6.3500   -2.4630   -3.4570 hc        1 MOL      0.001162
    101 H46        -4.7890   -2.1470   -4.1610 hc        1 MOL      0.001162
    102 N10        -3.1650   -2.5130    1.1720 n         1 MOL     -0.438305
    103 C32        -3.8750   -2.5100    2.4280 c3        1 MOL      0.284453
    104 C33        -5.1110   -1.5960    2.3630 c         1 MOL      0.307597
    105 O16        -5.7520   -1.3440    3.4020 o         1 MOL     -0.532801
    106 C34        -2.9180   -2.2650    3.6230 c3        1 MOL     -0.238735
    107 C35        -2.0020   -1.0350    3.5450 c         1 MOL      0.864203
    108 O17        -2.4830    0.0540    3.9740 o         1 MOL     -0.759373
    109 O18        -0.7690   -1.0330    3.1660 o         1 MOL     -0.759373
    110 H47        -2.7610   -1.6660    0.7910 hn        1 MOL      0.189458
    111 H48        -4.2910   -3.4930    2.6360 h1        1 MOL      0.067346
    112 H49        -2.3250   -3.1720    3.6400 hc        1 MOL      0.033338
    113 H50        -3.4610   -2.2370    4.5670 hc        1 MOL      0.033338
    114 N11        -5.5890   -0.9800    1.2320 n         1 MOL     -0.352424
    115 C36        -6.7820   -0.0940    1.1090 c3        1 MOL      0.538932
    116 C37        -6.4600    1.2290    0.3560 c         1 MOL      0.135883
    117 O19        -6.9010    1.5480   -0.7950 o         1 MOL     -0.423337
    118 C38        -7.9000   -0.8760    0.4370 c3        1 MOL     -0.476853
    119 C39        -9.2140   -0.2520    0.1540 ca        1 MOL      0.344192
    120 C40        -9.6560   -0.1570   -1.1340 ca        1 MOL     -0.299932
    121 C41        -9.9170    0.2230    1.2120 ca        1 MOL     -0.299932
    122 C42       -10.8740    0.3800   -1.3960 ca        1 MOL     -0.020658
    123 C43       -11.1390    0.8080    0.9340 ca        1 MOL     -0.020658
    124 C44       -11.6150    0.8780   -0.3460 ca        1 MOL     -0.208390
    125 H51        -5.0300   -1.0350    0.3870 hn        1 MOL      0.161260
    126 H52        -7.1540    0.1640    2.0920 h1        1 MOL     -0.035373
    127 H53        -8.0880   -1.6800    1.1490 hc        1 MOL      0.110126
    128 H54        -7.5010   -1.3400   -0.4710 hc        1 MOL      0.110126
    129 H55        -9.0960   -0.5610   -1.9640 ha        1 MOL      0.153427
    130 H56        -9.4850    0.3830    2.1890 ha        1 MOL      0.153427
    131 H57       -11.2780    0.3430   -2.3960 ha        1 MOL      0.075645
    132 H58       -11.8290    1.1900    1.6750 ha        1 MOL      0.075645
    133 H59       -12.5810    1.2560   -0.6460 ha        1 MOL      0.102425
    134 N12        -5.7320    2.0920    1.1070 n         1 MOL     -0.071646
    135 C45        -5.4640    3.4580    0.7110 c3        1 MOL     -0.083588
    136 C46        -4.6890    3.6080   -0.5880 c         1 MOL      0.193243
    137 O20        -4.7240    4.7000   -1.1140 o         1 MOL     -0.501720
    138 C47        -4.7670    4.1070    1.8050 c3        1 MOL      0.000687
    139 C48        -5.0010    3.3250    3.0800 c3        1 MOL     -0.363843
    140 C49        -5.2290    1.9390    2.4670 c3        1 MOL      0.022385
    141 H60        -6.4590    3.8940    0.6690 h1        1 MOL      0.123217
    142 H61        -3.6870    4.1230    1.6550 hc        1 MOL      0.068905
    143 H62        -5.0610    5.1310    2.0210 hc        1 MOL      0.068905
    144 H63        -4.0810    3.3910    3.6630 hc        1 MOL      0.118856
    145 H64        -5.8930    3.7220    3.5770 hc        1 MOL      0.118856
    146 H65        -4.2880    1.3890    2.4230 h1        1 MOL      0.133406
    147 H66        -5.8110    1.3980    3.2060 h1        1 MOL      0.133406
    148 N13        -4.1740    2.5760   -1.2630 n         1 MOL     -0.020783
    149 C50        -3.5820    2.4950   -2.6980 c3        1 MOL     -0.170136
    150 C51        -4.6060    2.6180   -3.7460 c         1 MOL      0.591917
    151 O21        -4.4410    3.2710   -4.7280 o         1 MOL     -0.589301
    152 C52        -2.9080    1.1020   -2.9180 c3        1 MOL      0.004986
    153 C53        -1.6830    0.7660   -1.9890 c3        1 MOL     -0.049193
    154 C54        -2.1020    0.1550   -0.6230 c         1 MOL      0.520628
    155 O22        -1.2730   -0.4480    0.1380 o         1 MOL     -0.633043
    156 O23        -3.2710    0.2550   -0.2170 o         1 MOL     -0.633043
    157 H67        -4.0440    1.7800   -0.6570 hn        1 MOL      0.258508
    158 H68        -2.8640    3.2940   -2.8790 h1        1 MOL      0.098655
    159 H69        -2.4810    1.0410   -3.9230 hc        1 MOL     -0.000276
    160 H70        -3.6410    0.3040   -2.7930 hc        1 MOL     -0.000276
    161 H71        -1.0610    1.6540   -1.8810 hc        1 MOL      0.031959
    162 H72        -0.9840    0.0960   -2.4930 hc        1 MOL      0.031959
    163 N14        -5.7000    1.9760   -3.4530 n         1 MOL     -0.171458
    164 C55        -6.8400    2.0810   -4.3630 c3        1 MOL     -0.237935
    165 H73        -7.7550    2.2160   -3.7850 h1        1 MOL      0.090683
    166 H74        -6.6990    2.9350   -5.0250 h1        1 MOL      0.090683
    167 H75        -6.9170    1.1690   -4.9560 h1        1 MOL      0.090683
    168 H76        -5.7950    1.6140   -2.5160 hn        1 MOL      0.183963
    169 Ca1         0.9730   -0.7490    1.3120 Ca        1 MOL      1.763683
    170 O24         2.5830   -2.8150    2.1700 oh        1 MOL     -0.905529
    171 H77         3.0440   -3.4770    1.6690 ho        1 MOL      0.432606
    172 H78         2.9470   -2.8700    3.0560 ho        1 MOL      0.432606
    173 O25         0.7730    1.9050    1.1120 oh        1 MOL     -0.905529
    174 H79         1.1950    2.7180    0.8200 ho        1 MOL      0.432606
    175 H80        -0.0960    2.1870    1.3870 ho        1 MOL      0.432606
    176 O26         2.0730   -1.1560   -1.0870 oh        1 MOL     -0.905529
    177 H81         2.4590   -0.3150   -1.3290 ho        1 MOL      0.432606
    178 H82         2.4590   -1.7780   -1.7030 ho        1 MOL      0.432606
@<TRIPOS>BOND
     1    1    2 1   
     2    1    4 1   
     3    1    5 1   
     4    1    6 1   
     5    2    3 2   
     6    2    7 1   
     7    7    8 1   
     8    7   15 1   
     9    8    9 1   
    10    8   11 1   
    11    8   16 1   
    12    9   10 2   
    13    9   19 1   
    14   11   12 1   
    15   11   17 1   
    16   11   18 1   
    17   12   13 1   
    18   12   14 1   
    19   19   20 1   
    20   19   24 1   
    21   20   21 1   
    22   20   23 1   
    23   20   25 1   
    24   21   22 2   
    25   21   29 1   
    26   23   26 1   
    27   23   27 1   
    28   23   28 1   
    29   29   30 1   
    30   29   37 1   
    31   30   31 1   
    32   30   33 1   
    33   30   38 1   
    34   31   32 2   
    35   31   41 1   
    36   33   34 1   
    37   33   39 1   
    38   33   40 1   
    39   34   35 1   
    40   34   36 1   
    41   41   42 1   
    42   41   45 1   
    43   42   43 1   
    44   42   46 1   
    45   42   47 1   
    46   43   44 2   
    47   43   48 1   
    48   48   49 1   
    49   48   56 1   
    50   49   50 1   
    51   49   52 1   
    52   49   57 1   
    53   50   51 2   
    54   50   62 1   
    55   52   53 1   
    56   52   58 1   
    57   52   59 1   
    58   53   54 1   
    59   53   55 2   
    60   54   60 1   
    61   54   61 1   
    62   62   63 1   
    63   62   66 1   
    64   63   64 1   
    65   63   67 1   
    66   63   68 1   
    67   64   65 2   
    68   64   69 1   
    69   69   70 1   
    70   69   76 1   
    71   70   71 1   
    72   70   73 1   
    73   70   77 1   
    74   71   72 2   
    75   71   83 1   
    76   73   74 1   
    77   73   75 1   
    78   73   78 1   
    79   74   80 1   
    80   74   81 1   
    81   74   82 1   
    82   75   79 1   
    83   83   84 1   
    84   83   91 1   
    85   84   85 1   
    86   84   87 1   
    87   84   92 1   
    88   85   86 2   
    89   85  102 1   
    90   87   88 1   
    91   87   89 1   
    92   87   93 1   
    93   88   90 1   
    94   88   94 1   
    95   88   95 1   
    96   89   96 1   
    97   89   97 1   
    98   89   98 1   
    99   90   99 1   
   100   90  100 1   
   101   90  101 1   
   102  102  103 1   
   103  102  110 1   
   104  103  104 1   
   105  103  106 1   
   106  103  111 1   
   107  104  105 2   
   108  104  114 1   
   109  106  107 1   
   110  106  112 1   
   111  106  113 1   
   112  107  108 1   
   113  107  109 1   
   114  114  115 1   
   115  114  125 1   
   116  115  116 1   
   117  115  118 1   
   118  115  126 1   
   119  116  117 2   
   120  116  134 1   
   121  118  119 1   
   122  118  127 1   
   123  118  128 1   
   124  119  120 ar  
   125  119  121 ar  
   126  120  122 ar  
   127  120  129 1   
   128  121  123 ar  
   129  121  130 1   
   130  122  124 ar  
   131  122  131 1   
   132  123  124 ar  
   133  123  132 1   
   134  124  133 1   
   135  134  135 1   
   136  134  140 1   
   137  135  136 1   
   138  135  138 1   
   139  135  141 1   
   140  136  137 2   
   141  136  148 1   
   142  138  139 1   
   143  138  142 1   
   144  138  143 1   
   145  139  140 1   
   146  139  144 1   
   147  139  145 1   
   148  140  146 1   
   149  140  147 1   
   150  148  149 1   
   151  148  157 1   
   152  149  150 1   
   153  149  152 1   
   154  149  158 1   
   155  150  151 2   
   156  150  163 1   
   157  152  153 1   
   158  152  159 1   
   159  152  160 1   
   160  153  154 1   
   161  153  161 1   
   162  153  162 1   
   163  154  155 1   
   164  154  156 1   
   165  163  164 1   
   166  163  168 1   
   167  164  165 1   
   168  164  166 1   
   169  164  167 1   
   170  170  171 1   
   171  170  172 1   
   172  173  174 1   
   173  173  175 1   
   174  176  177 1   
   175  176  178 1   
@<TRIPOS>SUBSTRUCTURE
     1 MOL         1 TEMP              0 ****  ****    0 ROOT
