@<TRIPOS>MOLECULE
MOL
  195   189     1     0     0
SMALL
resp


@<TRIPOS>ATOM
      1 C1          1.8680    3.2350    3.2560 c3        1 MOL     -0.498569
      2 C2          1.1130    3.4730    1.9230 c         1 MOL      0.917190
      3 O1          0.3770    2.6040    1.5140 o         1 MOL     -0.544896
      4 H1          1.2910    2.5560    3.8840 hc        1 MOL      0.113354
      5 H2          2.8440    2.7960    3.0480 hc        1 MOL      0.113354
      6 H3          2.0000    4.1850    3.7750 hc        1 MOL      0.113354
      7 N1          1.3610    4.6170    1.2920 n         1 MOL     -0.855879
      8 C3          0.6760    5.1270    0.1200 c3        1 MOL     -0.063885
      9 C4         -0.8380    5.2100    0.1130 c         1 MOL      0.965791
     10 O2         -1.5360    4.7790   -0.8190 o         1 MOL     -0.609393
     11 C5          1.1370    4.3990   -1.1200 c3        1 MOL     -0.624351
     12 C6          2.6680    4.6210   -1.2960 c         1 MOL      1.041812
     13 O3          3.3730    3.6650   -1.5930 o         1 MOL     -0.782248
     14 O4          3.1540    5.7480   -1.1100 o         1 MOL     -0.782248
     15 H4          1.9280    5.2160    1.8600 hn        1 MOL      0.366320
     16 H5          1.0510    6.1410   -0.0470 h1        1 MOL      0.082571
     17 H6          0.7420    4.8280   -2.0410 hc        1 MOL      0.186733
     18 H7          0.8680    3.3540   -0.9570 hc        1 MOL      0.186733
     19 N2         -1.4910    5.7490    1.1110 n         1 MOL     -0.793847
     20 C7         -2.9400    5.5960    1.2790 c3        1 MOL     -0.157527
     21 C8         -3.7910    6.5880    0.4580 c         1 MOL      0.584044
     22 O5         -3.4250    7.6800    0.1120 o         1 MOL     -0.573466
     23 C9         -3.4490    5.6380    2.7530 c3        1 MOL      0.184650
     24 C10        -3.1780    7.0710    3.3850 c3        1 MOL      0.150969
     25 C11        -2.6930    4.5730    3.5830 c3        1 MOL     -0.205157
     26 C12        -3.7280    7.3440    4.7810 c3        1 MOL     -0.178869
     27 H8         -0.9080    6.2220    1.7810 hn        1 MOL      0.412855
     28 H9         -3.1580    4.6080    0.8960 h1        1 MOL      0.154226
     29 H10        -4.5020    5.3810    2.7990 hc        1 MOL      0.064545
     30 H11        -3.6580    7.8410    2.7870 hc        1 MOL     -0.035863
     31 H12        -2.0880    7.1850    3.4050 hc        1 MOL     -0.035863
     32 H13        -3.1680    4.2970    4.5270 hc        1 MOL      0.037177
     33 H14        -2.5990    3.6080    3.0860 hc        1 MOL      0.037177
     34 H15        -1.6910    4.9440    3.7770 hc        1 MOL      0.037177
     35 H16        -4.7780    7.0530    4.7730 hc        1 MOL      0.031723
     36 H17        -3.2290    6.8180    5.5970 hc        1 MOL      0.031723
     37 H18        -3.6150    8.4100    4.9920 hc        1 MOL      0.031723
     38 N3         -5.0100    6.2540    0.0040 n         1 MOL     -0.432729
     39 C13        -5.7950    5.0310    0.2330 c3        1 MOL     -0.041062
     40 C14        -5.4280    3.8360   -0.6180 c         1 MOL      0.478887
     41 O6         -6.1860    2.8860   -0.4360 o         1 MOL     -0.534654
     42 C15        -7.3030    5.3610    0.0910 c3        1 MOL     -0.022657
     43 C16        -7.7460    6.6100    0.9290 c         1 MOL      0.632092
     44 O7         -7.6190    6.5630    2.1910 o         1 MOL     -0.701742
     45 O8         -8.3510    7.5700    0.3050 o         1 MOL     -0.701742
     46 H19        -5.4400    6.9330   -0.6060 hn        1 MOL      0.286343
     47 H20        -5.7580    4.7270    1.2720 h1        1 MOL      0.040606
     48 H21        -7.9100    4.5200    0.4280 hc        1 MOL      0.010047
     49 H22        -7.5490    5.4810   -0.9620 hc        1 MOL      0.010047
     50 N4         -4.5680    3.8950   -1.5880 n         1 MOL     -0.276169
     51 C17        -4.2790    2.7890   -2.5130 c3        1 MOL     -0.143942
     52 C18        -5.3490    1.8020   -2.9650 c         1 MOL      0.501139
     53 O9         -6.4900    2.1720   -3.3360 o         1 MOL     -0.546875
     54 H23        -3.9320    4.6870   -1.5760 hn        1 MOL      0.272561
     55 H24        -3.6000    2.0680   -2.0480 h1        1 MOL      0.086073
     56 H25        -3.8020    3.2190   -3.3900 h1        1 MOL      0.086073
     57 N5         -5.1080    0.4990   -2.9880 n         1 MOL     -0.327742
     58 C19        -6.0980   -0.5020   -3.3670 c3        1 MOL      0.039294
     59 C20        -6.9470   -1.1490   -2.1920 c         1 MOL      0.432698
     60 O10        -7.9240   -1.8160   -2.5150 o         1 MOL     -0.552987
     61 C21        -5.3510   -1.6620   -4.0600 c3        1 MOL     -0.346189
     62 C22        -4.1140   -2.1270   -3.2920 c         1 MOL      0.729413
     63 O11        -4.1620   -2.8740   -2.2910 o         1 MOL     -0.690464
     64 O12        -3.0420   -1.5690   -3.5850 o         1 MOL     -0.690464
     65 H26        -4.1260    0.2470   -2.9900 hn        1 MOL      0.225538
     66 H27        -6.7450   -0.0760   -4.1350 h1        1 MOL      0.100098
     67 H28        -5.1310   -1.3520   -5.0790 hc        1 MOL      0.078701
     68 H29        -6.1090   -2.4130   -4.2760 hc        1 MOL      0.078701
     69 N6         -6.5620   -0.9780   -0.9430 n         1 MOL     -0.104900
     70 C23        -7.3140   -1.5100    0.2320 c3        1 MOL     -0.400902
     71 C24        -7.1890   -2.9930    0.6160 c         1 MOL      0.505282
     72 O13        -7.9020   -3.5270    1.4430 o         1 MOL     -0.578012
     73 H30        -5.8340   -0.2990   -0.7490 hn        1 MOL      0.212495
     74 H31        -8.3590   -1.2410    0.0790 h1        1 MOL      0.172629
     75 H32        -6.9740   -0.9960    1.1390 h1        1 MOL      0.172629
     76 N7         -6.3150   -3.6990   -0.1190 n         1 MOL      0.038067
     77 C25        -6.0080   -5.0990   -0.1150 c3        1 MOL      0.074060
     78 C26        -5.2860   -5.3930    1.1870 c         1 MOL      0.340326
     79 O14        -5.3120   -6.5610    1.6160 o         1 MOL     -0.532841
     80 C27        -7.1170   -5.9760   -0.7790 c3        1 MOL     -0.119892
     81 C28        -7.4990   -5.2710   -2.1170 c3        1 MOL     -0.039373
     82 C29        -8.3070   -6.2080   -3.0380 c         1 MOL      0.599310
     83 N8         -9.3130   -5.6750   -3.7530 n         1 MOL     -0.781119
     84 O15        -8.0440   -7.3910   -3.0950 o         1 MOL     -0.554727
     85 H33        -5.8920   -3.1210   -0.8350 hn        1 MOL     -0.002997
     86 H34        -5.2020   -5.2020   -0.8510 h1        1 MOL      0.081788
     87 H35        -7.9530   -5.9650   -0.0950 hc        1 MOL      0.052308
     88 H36        -6.7430   -6.9890   -0.9300 hc        1 MOL      0.052308
     89 H37        -6.6520   -4.8430   -2.6580 hc        1 MOL      0.045099
     90 H38        -8.1720   -4.4410   -1.8980 hc        1 MOL      0.045099
     91 H39        -9.3450   -4.6830   -3.9330 hn        1 MOL      0.340798
     92 H40        -9.7920   -6.2430   -4.4480 hn        1 MOL      0.340798
     93 N9         -4.6880   -4.4430    1.8460 n         1 MOL     -0.123832
     94 C30        -3.9540   -4.5620    3.1060 c3        1 MOL     -0.211059
     95 C31        -2.4580   -4.3260    3.0640 c         1 MOL      0.707734
     96 O16        -1.7590   -4.5640    4.0050 o         1 MOL     -0.581142
     97 C32        -4.5940   -3.7830    4.2820 c3        1 MOL      0.333517
     98 C33        -4.6930   -2.2870    3.9450 c3        1 MOL     -0.423699
     99 C34        -6.0280   -4.2220    4.4540 c3        1 MOL     -0.423699
    100 H41        -4.5560   -3.6170    1.2720 hn        1 MOL      0.151776
    101 H42        -4.0610   -5.6090    3.4000 h1        1 MOL      0.110669
    102 H43        -4.0950   -3.9970    5.2210 hc        1 MOL     -0.019649
    103 H44        -3.6530   -1.9840    3.7870 hc        1 MOL      0.101242
    104 H45        -5.2720   -2.1230    3.0440 hc        1 MOL      0.101242
    105 H46        -5.0610   -1.5870    4.6950 hc        1 MOL      0.101242
    106 H47        -6.5430   -3.7190    5.2750 hc        1 MOL      0.101242
    107 H48        -6.6250   -3.9540    3.5890 hc        1 MOL      0.101242
    108 H49        -5.9510   -5.3060    4.4310 hc        1 MOL      0.101242
    109 N10        -1.9710   -3.7530    1.9650 n         1 MOL     -0.658825
    110 C35        -0.6740   -3.0840    1.7570 c3        1 MOL      0.478477
    111 C36         0.1870   -3.5510    0.5810 c         1 MOL      0.368554
    112 O17        -0.2280   -4.0110   -0.4550 o         1 MOL     -0.493417
    113 C37        -0.8770   -1.5710    1.7640 c3        1 MOL     -0.191017
    114 C38         0.4150   -0.8380    1.4680 c         1 MOL      0.523814
    115 N11         0.6870   -0.1940    0.3710 n         1 MOL     -0.713059
    116 O18         1.2520   -0.9020    2.3830 o         1 MOL     -0.574050
    117 H50        -2.6380   -3.5000    1.2450 hn        1 MOL      0.259704
    118 H51        -0.1610   -3.3230    2.6890 h1        1 MOL      0.006404
    119 H52        -1.2100   -1.2280    2.7460 hc        1 MOL      0.055780
    120 H53        -1.6330   -1.3180    1.0280 hc        1 MOL      0.055780
    121 H54        -0.0340   -0.1980   -0.3420 hn        1 MOL      0.374707
    122 H55         1.3960    0.5260    0.4470 hn        1 MOL      0.374707
    123 N12         1.5180   -3.4060    0.7440 n         1 MOL     -0.384464
    124 C39         2.6220   -3.8000   -0.1310 c3        1 MOL      0.339958
    125 C40         3.9810   -3.7570    0.6440 c         1 MOL      0.385759
    126 O19         4.0450   -3.2650    1.7630 o         1 MOL     -0.512924
    127 C41         2.6300   -2.8280   -1.3530 c3        1 MOL     -0.281740
    128 C42         3.8400   -2.9670   -2.2830 ca        1 MOL      0.029034
    129 C43         4.8520   -1.9790   -2.3740 ca        1 MOL     -0.135194
    130 C44         3.8280   -4.1340   -3.1210 ca        1 MOL     -0.135194
    131 C45         5.8070   -2.1800   -3.3730 ca        1 MOL     -0.268679
    132 C46         4.7430   -4.2750   -4.1210 ca        1 MOL     -0.268679
    133 C47         5.7910   -3.3320   -4.2040 ca        1 MOL      0.325589
    134 O20         6.9470   -3.6120   -4.8870 oh        1 MOL     -0.518596
    135 H56         1.7070   -3.0990    1.6860 hn        1 MOL      0.206837
    136 H57         2.5160   -4.8400   -0.4390 h1        1 MOL     -0.022195
    137 H58         2.6640   -1.7960   -1.0050 hc        1 MOL      0.116833
    138 H59         1.7030   -2.9100   -1.9180 hc        1 MOL      0.116833
    139 H60         4.9170   -1.1490   -1.6850 ha        1 MOL      0.137091
    140 H61         2.9870   -4.8130   -3.0300 ha        1 MOL      0.137091
    141 H62         6.6040   -1.4540   -3.4830 ha        1 MOL      0.153046
    142 H63         4.7780   -5.1690   -4.7280 ha        1 MOL      0.153046
    143 H64         7.6570   -3.0910   -4.5110 ho        1 MOL      0.369697
    144 N13         5.1150   -4.1080    0.0150 n         1 MOL     -0.285651
    145 C48         6.4740   -4.0840    0.5110 c3        1 MOL      0.057033
    146 C49         7.4870   -3.3700   -0.4470 c         1 MOL      0.501925
    147 O21         8.0810   -3.9840   -1.3050 o         1 MOL     -0.533815
    148 C50         7.0320   -5.4370    0.9670 c3        1 MOL     -0.153222
    149 C51         6.2300   -5.9040    2.2100 c3        1 MOL     -0.113827
    150 C52         6.3670   -7.3790    2.5420 c         1 MOL      0.694818
    151 O22         7.2290   -7.5460    3.3810 o         1 MOL     -0.711350
    152 O23         5.7690   -8.2330    1.8600 o         1 MOL     -0.711350
    153 H65         4.9810   -4.6670   -0.8110 hn        1 MOL      0.253303
    154 H66         6.4920   -3.5350    1.4550 h1        1 MOL      0.113629
    155 H67         8.0710   -5.3300    1.2880 hc        1 MOL      0.079138
    156 H68         6.8790   -6.2460    0.2580 hc        1 MOL      0.079138
    157 H69         5.1610   -5.7030    2.1920 hc        1 MOL      0.019588
    158 H70         6.6370   -5.3650    3.0660 hc        1 MOL      0.019588
    159 N14         7.6920   -2.0250   -0.3990 n         1 MOL     -0.533453
    160 C53         7.2060   -1.0470    0.5150 c3        1 MOL      0.001672
    161 C54         7.6070   -1.3830    1.9220 c         1 MOL      0.447494
    162 O24         8.5860   -2.0390    2.2310 o         1 MOL     -0.483667
    163 C55         7.6860    0.3730    0.0890 c3        1 MOL      0.143568
    164 C56         7.4260    0.7100   -1.3840 c3        1 MOL     -0.030147
    165 C57         7.6970    2.2300   -1.5920 c         1 MOL      0.713114
    166 O25         6.6930    2.8950   -1.9690 o         1 MOL     -0.727889
    167 O26         8.8170    2.7450   -1.4780 o         1 MOL     -0.727889
    168 H71         8.3260   -1.6480   -1.0910 hn        1 MOL      0.322674
    169 H72         6.1250   -1.2100    0.4340 h1        1 MOL      0.029443
    170 H73         8.7420    0.4750    0.3170 hc        1 MOL     -0.032379
    171 H74         7.2270    1.1520    0.7010 hc        1 MOL     -0.032379
    172 H75         6.3660    0.5510   -1.6220 hc        1 MOL     -0.015072
    173 H76         7.9800    0.1040   -2.0960 hc        1 MOL     -0.015072
    174 N15         6.8060   -0.8420    2.8420 n         1 MOL     -0.365453
    175 C58         7.1300   -1.0060    4.3260 c3        1 MOL     -0.058802
    176 H77         6.2770   -1.4530    4.8360 h1        1 MOL      0.070456
    177 H78         8.0000   -1.6530    4.4390 h1        1 MOL      0.070456
    178 H79         7.3430   -0.0300    4.7610 h1        1 MOL      0.070456
    179 H80         6.1980   -0.1170    2.5040 hn        1 MOL      0.256639
    180 Ca1         5.7180    5.1190   -0.9450 Ca        1 MOL      1.763872
    181 O27         5.3660    5.3640   -3.5680 oh        1 MOL     -0.877763
    182 O28         5.9350    7.7240   -1.5980 oh        1 MOL     -0.877763
    183 H81         5.0550    4.8480   -4.3200 ho        1 MOL      0.413319
    184 H82         6.6460    8.2680   -1.2610 ho        1 MOL      0.413319
    185 H83         6.0670    5.9020   -3.9260 ho        1 MOL      0.413319
    186 H84         5.5980    8.2020   -2.3550 ho        1 MOL      0.413319
    187 O29         8.1720    5.3860   -2.1210 oh        1 MOL     -0.877763
    188 O30         5.5830    3.2540    0.9750 oh        1 MOL     -0.877763
    189 H85         8.4820    5.6660   -2.9820 ho        1 MOL      0.413319
    190 H86         5.2850    3.5310    1.8360 ho        1 MOL      0.413319
    191 H87         8.6630    4.5880   -1.9360 ho        1 MOL      0.413319
    192 H88         5.6060    2.2940    1.0180 ho        1 MOL      0.413319
    193 O31         7.3760    6.2150    0.7550 oh        1 MOL     -0.877763
    194 H89         7.7560    5.8340    1.5470 ho        1 MOL      0.413319
    195 H90         7.8210    7.0490    0.6570 ho        1 MOL      0.413319
@<TRIPOS>BOND
     1    1    2 1   
     2    1    4 1   
     3    1    5 1   
     4    1    6 1   
     5    2    3 2   
     6    2    7 1   
     7    7    8 1   
     8    7   15 1   
     9    8    9 1   
    10    8   11 1   
    11    8   16 1   
    12    9   10 2   
    13    9   19 1   
    14   11   12 1   
    15   11   17 1   
    16   11   18 1   
    17   12   13 1   
    18   12   14 1   
    19   19   20 1   
    20   19   27 1   
    21   20   21 1   
    22   20   23 1   
    23   20   28 1   
    24   21   22 2   
    25   21   38 1   
    26   23   24 1   
    27   23   25 1   
    28   23   29 1   
    29   24   26 1   
    30   24   30 1   
    31   24   31 1   
    32   25   32 1   
    33   25   33 1   
    34   25   34 1   
    35   26   35 1   
    36   26   36 1   
    37   26   37 1   
    38   38   39 1   
    39   38   46 1   
    40   39   40 1   
    41   39   42 1   
    42   39   47 1   
    43   40   41 2   
    44   40   50 1   
    45   42   43 1   
    46   42   48 1   
    47   42   49 1   
    48   43   44 1   
    49   43   45 1   
    50   50   51 1   
    51   50   54 1   
    52   51   52 1   
    53   51   55 1   
    54   51   56 1   
    55   52   53 2   
    56   52   57 1   
    57   57   58 1   
    58   57   65 1   
    59   58   59 1   
    60   58   61 1   
    61   58   66 1   
    62   59   60 2   
    63   59   69 1   
    64   61   62 1   
    65   61   67 1   
    66   61   68 1   
    67   62   63 1   
    68   62   64 1   
    69   69   70 1   
    70   69   73 1   
    71   70   71 1   
    72   70   74 1   
    73   70   75 1   
    74   71   72 2   
    75   71   76 1   
    76   76   77 1   
    77   76   85 1   
    78   77   78 1   
    79   77   80 1   
    80   77   86 1   
    81   78   79 2   
    82   78   93 1   
    83   80   81 1   
    84   80   87 1   
    85   80   88 1   
    86   81   82 1   
    87   81   89 1   
    88   81   90 1   
    89   82   83 1   
    90   82   84 2   
    91   83   91 1   
    92   83   92 1   
    93   93   94 1   
    94   93  100 1   
    95   94   95 1   
    96   94   97 1   
    97   94  101 1   
    98   95   96 2   
    99   95  109 1   
   100   97   98 1   
   101   97   99 1   
   102   97  102 1   
   103   98  103 1   
   104   98  104 1   
   105   98  105 1   
   106   99  106 1   
   107   99  107 1   
   108   99  108 1   
   109  109  110 1   
   110  109  117 1   
   111  110  111 1   
   112  110  113 1   
   113  110  118 1   
   114  111  112 2   
   115  111  123 1   
   116  113  114 1   
   117  113  119 1   
   118  113  120 1   
   119  114  115 1   
   120  114  116 2   
   121  115  121 1   
   122  115  122 1   
   123  123  124 1   
   124  123  135 1   
   125  124  125 1   
   126  124  127 1   
   127  124  136 1   
   128  125  126 2   
   129  125  144 1   
   130  127  128 1   
   131  127  137 1   
   132  127  138 1   
   133  128  129 ar  
   134  128  130 ar  
   135  129  131 ar  
   136  129  139 1   
   137  130  132 ar  
   138  130  140 1   
   139  131  133 ar  
   140  131  141 1   
   141  132  133 ar  
   142  132  142 1   
   143  133  134 1   
   144  134  143 1   
   145  144  145 1   
   146  144  153 1   
   147  145  146 1   
   148  145  148 1   
   149  145  154 1   
   150  146  147 2   
   151  146  159 1   
   152  148  149 1   
   153  148  155 1   
   154  148  156 1   
   155  149  150 1   
   156  149  157 1   
   157  149  158 1   
   158  150  151 1   
   159  150  152 1   
   160  159  160 1   
   161  159  168 1   
   162  160  161 1   
   163  160  163 1   
   164  160  169 1   
   165  161  162 2   
   166  161  174 1   
   167  163  164 1   
   168  163  170 1   
   169  163  171 1   
   170  164  165 1   
   171  164  172 1   
   172  164  173 1   
   173  165  166 1   
   174  165  167 1   
   175  174  175 1   
   176  174  179 1   
   177  175  176 1   
   178  175  177 1   
   179  175  178 1   
   180  181  183 1   
   181  181  185 1   
   182  182  184 1   
   183  182  186 1   
   184  187  189 1   
   185  187  191 1   
   186  188  190 1   
   187  188  192 1   
   188  193  194 1   
   189  193  195 1   
@<TRIPOS>SUBSTRUCTURE
     1 MOL         1 TEMP              0 ****  ****    0 ROOT
