@<TRIPOS>MOLECULE
MOL
  184   179     1     0     0
SMALL
resp


@<TRIPOS>ATOM
      1 C1          1.5310   -1.7170    4.7250 c3        1 MOL     -0.393549
      2 C2          2.5530   -0.7090    4.1830 c         1 MOL      0.631605
      3 O1          2.2190    0.2190    3.4570 o         1 MOL     -0.588436
      4 H1          2.0110   -2.3580    5.4650 hc        1 MOL      0.104329
      5 H2          0.7040   -1.1820    5.1910 hc        1 MOL      0.104329
      6 H3          1.1540   -2.3300    3.9060 hc        1 MOL      0.104329
      7 N1          3.8070   -0.7320    4.6110 n         1 MOL     -0.430934
      8 C3          4.8240    0.1860    4.1300 c3        1 MOL      0.150189
      9 C4          5.3500   -0.0260    2.7190 c         1 MOL      0.534469
     10 O2          5.9200    0.8870    2.0850 o         1 MOL     -0.598432
     11 C5          5.9970    0.1760    5.0630 c3        1 MOL     -0.276473
     12 C6          6.8340   -1.1060    5.5090 c         1 MOL      0.667864
     13 O3          8.0910   -0.9970    5.7380 o         1 MOL     -0.692063
     14 O4          6.2120   -2.1720    5.5420 o         1 MOL     -0.692063
     15 H4          4.1710   -1.4120    5.2590 hn        1 MOL      0.256751
     16 H5          4.3120    1.1530    4.1780 h1        1 MOL      0.042931
     17 H6          5.5440    0.5830    5.9750 hc        1 MOL      0.039144
     18 H7          6.6210    1.0110    4.7370 hc        1 MOL      0.039144
     19 N2          5.2620   -1.2660    2.2230 n         1 MOL     -0.405204
     20 C7          5.7500   -1.7240    0.9350 c3        1 MOL      0.404483
     21 C8          5.3100   -0.8760   -0.2860 c         1 MOL      0.147171
     22 O5          4.3340   -1.2010   -0.8960 o         1 MOL     -0.346980
     23 C9          7.2090   -2.1180    0.8220 c3        1 MOL     -0.301814
     24 H8          4.9540   -1.9870    2.8560 hn        1 MOL      0.261455
     25 H9          5.2360   -2.6750    0.7480 h1        1 MOL      0.007414
     26 H10         7.8450   -1.2950    1.1650 hc        1 MOL      0.072884
     27 H11         7.3250   -3.0230    1.4250 hc        1 MOL      0.072884
     28 H12         7.4940   -2.3920   -0.1920 hc        1 MOL      0.072884
     29 N3          6.0750    0.2110   -0.5530 n         1 MOL     -0.019787
     30 C10         5.9400    1.0190   -1.7220 c3        1 MOL     -0.356876
     31 C11         5.4240    2.4640   -1.4610 c         1 MOL      0.632316
     32 O6          5.2270    3.1790   -2.4540 o         1 MOL     -0.562602
     33 C12         7.2460    1.0670   -2.5700 c3        1 MOL     -0.224771
     34 C13         7.9450   -0.2780   -2.8970 c         1 MOL      0.656537
     35 O7          9.1630   -0.5100   -2.8280 o         1 MOL     -0.663839
     36 O8          7.1360   -1.1550   -3.3070 o         1 MOL     -0.663839
     37 H13         6.7340    0.4440    0.1750 hn        1 MOL      0.255755
     38 H14         5.2240    0.5780   -2.4260 h1        1 MOL      0.101720
     39 H15         7.9350    1.6020   -1.9200 hc        1 MOL      0.050779
     40 H16         7.1330    1.5760   -3.5320 hc        1 MOL      0.050779
     41 N4          5.2650    2.8660   -0.1870 n         1 MOL     -0.252639
     42 C14         4.8510    4.2040    0.2160 c3        1 MOL     -0.167838
     43 C15         3.5090    4.7460   -0.4180 c         1 MOL      0.584645
     44 O9          3.4560    5.9510   -0.6840 o         1 MOL     -0.551874
     45 H17         5.3080    2.1010    0.4760 hn        1 MOL      0.201639
     46 H18         5.6000    4.9030   -0.1400 h1        1 MOL      0.094715
     47 H19         4.8210    4.3410    1.3010 h1        1 MOL      0.094715
     48 N5          2.6570    3.7830   -0.8490 n         1 MOL     -0.408020
     49 C16         1.5200    4.1170   -1.7030 c3        1 MOL     -0.018091
     50 C17         0.5910    5.0260   -0.9150 c         1 MOL      0.618005
     51 O10         0.3080    4.8020    0.2830 o         1 MOL     -0.522344
     52 C18         0.8680    2.9210   -2.2870 c3        1 MOL     -0.206988
     53 C19         1.8740    2.1270   -3.0650 c         1 MOL      0.666430
     54 N6          2.2600    2.6090   -4.2190 n         1 MOL     -0.672522
     55 O11         2.4990    1.1540   -2.6170 o         1 MOL     -0.608286
     56 H20         2.7710    2.8200   -0.5760 hn        1 MOL      0.297252
     57 H21         1.9320    4.7340   -2.5080 h1        1 MOL      0.053614
     58 H22         0.1550    3.1810   -3.0730 hc        1 MOL      0.077906
     59 H23         0.3840    2.2920   -1.5480 hc        1 MOL      0.077906
     60 H24         1.7630    3.3830   -4.6270 hn        1 MOL      0.334656
     61 H25         3.0380    2.1350   -4.6830 hn        1 MOL      0.334656
     62 N7          0.1200    6.0810   -1.5920 n         1 MOL     -0.498520
     63 C20        -0.9160    6.9520   -1.0500 c3        1 MOL     -0.086815
     64 C21        -2.3120    6.3270   -1.1400 c         1 MOL      0.571948
     65 O12        -2.6600    5.3840   -1.8500 o         1 MOL     -0.497897
     66 H26         0.1850    6.0040   -2.5990 hn        1 MOL      0.300934
     67 H27        -0.9130    7.8910   -1.5970 h1        1 MOL      0.107665
     68 H28        -0.6320    7.1870   -0.0290 h1        1 MOL      0.107665
     69 N8         -3.1930    6.8730   -0.2680 n         1 MOL     -0.523438
     70 C22        -4.5890    6.3870    0.0510 c3        1 MOL     -0.158482
     71 C23        -4.7850    5.0090    0.6850 c         1 MOL      0.401014
     72 O13        -5.9580    4.6360    0.9340 o         1 MOL     -0.537404
     73 C24        -5.4830    7.3840    0.7710 c3        1 MOL      0.494435
     74 C25        -5.1490    7.4650    2.2660 c3        1 MOL     -0.284734
     75 O14        -5.3410    8.6560    0.2290 oh        1 MOL     -0.661842
     76 H29        -2.8240    7.6460    0.2740 hn        1 MOL      0.245893
     77 H30        -5.0000    6.4490   -0.9500 h1        1 MOL      0.146765
     78 H31        -6.5040    7.0910    0.5270 h1        1 MOL      0.027408
     79 H32        -4.4400    8.9980    0.3050 ho        1 MOL      0.388840
     80 H33        -4.1440    7.1070    2.5190 hc        1 MOL      0.062333
     81 H34        -5.4040    8.4200    2.7220 hc        1 MOL      0.062333
     82 H35        -5.7460    6.7300    2.7990 hc        1 MOL      0.062333
     83 N9         -3.6830    4.2600    0.8320 n         1 MOL      0.018846
     84 C26        -3.5800    2.9160    1.4210 c3        1 MOL     -0.190947
     85 C27        -2.6990    2.0800    0.5030 c         1 MOL      0.567803
     86 O15        -2.2290    2.5340   -0.5160 o         1 MOL     -0.450284
     87 C28        -3.0730    3.0540    2.8590 c3        1 MOL      0.039906
     88 C29        -1.6840    3.5960    2.9080 c3        1 MOL     -0.038357
     89 C30        -4.0290    3.8620    3.7300 c3        1 MOL     -0.188702
     90 C31        -1.0720    3.5780    4.3410 c3        1 MOL     -0.334394
     91 H36        -2.8800    4.6070    0.3300 hn        1 MOL      0.053507
     92 H37        -4.5640    2.4480    1.4400 h1        1 MOL      0.131051
     93 H38        -3.0990    2.0480    3.2960 hc        1 MOL      0.043710
     94 H39        -1.6460    4.6210    2.5500 hc        1 MOL      0.103772
     95 H40        -0.9780    3.0870    2.2420 hc        1 MOL      0.103772
     96 H41        -5.0930    3.6900    3.5900 hc        1 MOL      0.044102
     97 H42        -3.6730    3.7480    4.7560 hc        1 MOL      0.044102
     98 H43        -3.9180    4.9260    3.5150 hc        1 MOL      0.044102
     99 H44        -1.3570    2.6360    4.8160 hc        1 MOL      0.088793
    100 H45         0.0000    3.7800    4.2990 hc        1 MOL      0.088793
    101 H46        -1.5060    4.3810    4.9380 hc        1 MOL      0.088793
    102 N10        -2.6410    0.7730    0.7210 n         1 MOL     -0.612716
    103 C32        -1.8560   -0.1310   -0.0450 c3        1 MOL     -0.039663
    104 C33        -2.6610   -1.4040   -0.4580 c         1 MOL      0.637223
    105 O16        -2.2340   -2.5170   -0.3020 o         1 MOL     -0.589749
    106 C34        -0.4940   -0.4850    0.5390 c3        1 MOL      0.065433
    107 C35         0.4860   -0.9600   -0.4760 c         1 MOL      0.848168
    108 O17         1.6450   -1.1830   -0.1620 o         1 MOL     -0.861782
    109 O18         0.1290   -1.0530   -1.6930 o         1 MOL     -0.861782
    110 H47        -3.1690    0.4990    1.5450 hn        1 MOL      0.322688
    111 H48        -1.6390    0.3820   -0.9800 h1        1 MOL      0.042191
    112 H49        -0.5040   -1.2570    1.2970 hc        1 MOL      0.037296
    113 H50        -0.1250    0.3140    1.1930 hc        1 MOL      0.037296
    114 N11        -3.8140   -1.1690   -1.0670 n         1 MOL     -0.499606
    115 C36        -4.5550   -2.1800   -1.8060 c3        1 MOL      0.299284
    116 C37        -4.9430   -3.3960   -0.9690 c         1 MOL      0.161405
    117 O19        -5.0800   -3.2480    0.2490 o         1 MOL     -0.381648
    118 C38        -5.8140   -1.5950   -2.4230 c3        1 MOL     -0.129626
    119 C39        -6.5520   -0.5720   -1.5750 ca        1 MOL     -0.037452
    120 C40        -7.5520   -0.9630   -0.6600 ca        1 MOL     -0.092817
    121 C41        -6.2010    0.8130   -1.5830 ca        1 MOL     -0.092817
    122 C42        -8.3150   -0.0080   -0.0220 ca        1 MOL     -0.133673
    123 C43        -6.9090    1.7360   -0.8000 ca        1 MOL     -0.133673
    124 C44        -8.0610    1.3540   -0.1410 ca        1 MOL     -0.076017
    125 H51        -4.0960   -0.2000   -1.1000 hn        1 MOL      0.297907
    126 H52        -3.9290   -2.5740   -2.6110 h1        1 MOL      0.009149
    127 H53        -6.4690   -2.3510   -2.8450 hc        1 MOL      0.059751
    128 H54        -5.4160   -1.1090   -3.3140 hc        1 MOL      0.059751
    129 H55        -7.8350   -1.9980   -0.5260 ha        1 MOL      0.105265
    130 H56        -5.4030    1.1270   -2.2480 ha        1 MOL      0.105265
    131 H57        -9.0520   -0.3150    0.7020 ha        1 MOL      0.107006
    132 H58        -6.6500    2.7860   -0.8350 ha        1 MOL      0.107006
    133 H59        -8.7490    2.0620    0.3150 ha        1 MOL      0.105677
    134 N12        -5.0780   -4.6050   -1.5880 n         1 MOL     -0.051454
    135 C45        -5.4580   -5.8790   -0.8630 c3        1 MOL      0.017479
    136 C46        -4.6950   -6.1830    0.4960 c         1 MOL      0.203773
    137 O20        -5.2490   -6.8070    1.3840 o         1 MOL     -0.474155
    138 C47        -5.2590   -7.0060   -1.8440 c3        1 MOL      0.127650
    139 C48        -5.5780   -6.3280   -3.1920 c3        1 MOL     -0.057207
    140 C49        -4.9870   -4.8870   -3.0280 c3        1 MOL     -0.133129
    141 H60        -6.5110   -5.7430   -0.6220 h1        1 MOL      0.072388
    142 H61        -4.2080   -7.2860   -1.7910 hc        1 MOL     -0.014643
    143 H62        -5.9630   -7.8370   -1.7550 hc        1 MOL     -0.014643
    144 H63        -5.1520   -6.9210   -4.0080 hc        1 MOL      0.035740
    145 H64        -6.6590   -6.2940   -3.2570 hc        1 MOL      0.035740
    146 H65        -3.9580   -4.9210   -3.3720 h1        1 MOL      0.056851
    147 H66        -5.4040   -4.1270   -3.6850 h1        1 MOL      0.056851
    148 N13        -3.4600   -5.6660    0.6160 n         1 MOL      0.016088
    149 C50        -2.6930   -5.7660    1.8550 c3        1 MOL     -0.194248
    150 C51        -3.1120   -4.7480    2.9150 c         1 MOL      0.473761
    151 O21        -2.8790   -5.0150    4.0910 o         1 MOL     -0.565353
    152 C52        -1.2480   -5.5160    1.4770 c3        1 MOL     -0.049582
    153 C53        -0.4490   -6.7160    0.8320 c3        1 MOL     -0.078774
    154 C54         1.0790   -6.4510    0.6160 c         1 MOL      0.585117
    155 O22         1.4590   -5.3730    0.0610 o         1 MOL     -0.659268
    156 O23         1.9140   -7.2920    1.0010 o         1 MOL     -0.659268
    157 H67        -2.9790   -5.3050   -0.2000 hn        1 MOL      0.210929
    158 H68        -2.8090   -6.7850    2.2080 h1        1 MOL      0.124532
    159 H69        -0.7210   -5.3960    2.4180 hc        1 MOL      0.066857
    160 H70        -1.1080   -4.5680    0.9590 hc        1 MOL      0.066857
    161 H71        -0.9770   -6.9620   -0.0900 hc        1 MOL     -0.021042
    162 H72        -0.4720   -7.6200    1.4360 hc        1 MOL     -0.021042
    163 N14        -3.7390   -3.6510    2.5710 n         1 MOL     -0.145010
    164 C55        -4.4460   -2.7850    3.5440 c3        1 MOL     -0.186541
    165 H73        -5.2040   -2.1990    3.0240 h1        1 MOL      0.081483
    166 H74        -4.9240   -3.4060    4.3020 h1        1 MOL      0.081483
    167 H75        -3.7320   -2.1140    4.0200 h1        1 MOL      0.081483
    168 H76        -3.9280   -3.5470    1.5860 hn        1 MOL      0.164898
    169 Ca1         2.4900   -1.6110   -2.7080 Ca        1 MOL      1.783892
    170 O24         0.8410   -0.4950   -4.7170 oh        1 MOL     -0.845306
    171 H77        -0.0290   -0.6340   -4.3520 ho        1 MOL      0.408247
    172 H78         0.6870   -0.3030   -5.6360 ho        1 MOL      0.408247
    173 O25         4.6970   -0.8540   -4.1890 oh        1 MOL     -0.845306
    174 H79         5.5140   -1.0330   -3.7180 ho        1 MOL      0.408247
    175 H80         4.7930    0.0310   -4.5250 ho        1 MOL      0.408247
    176 O26         4.4410   -3.3550   -2.5490 oh        1 MOL     -0.845306
    177 H81         5.2480   -3.6130   -2.9890 ho        1 MOL      0.408247
    178 H82         4.4360   -3.8420   -1.7340 ho        1 MOL      0.408247
    179 O27         1.3760   -3.9690   -2.2600 oh        1 MOL     -0.845306
    180 H83         0.6740   -4.3600   -2.7650 ho        1 MOL      0.408247
    181 H84         1.2480   -4.2890   -1.3600 ho        1 MOL      0.408247
    182 O28         2.1960   -2.9780   -5.2120 oh        1 MOL     -0.845306
    183 H85         2.2990   -3.9130   -5.4050 ho        1 MOL      0.408247
    184 H86         2.2530   -2.5550   -6.0700 ho        1 MOL      0.408247
@<TRIPOS>BOND
     1    1    2 1   
     2    1    4 1   
     3    1    5 1   
     4    1    6 1   
     5    2    3 2   
     6    2    7 1   
     7    7    8 1   
     8    7   15 1   
     9    8    9 1   
    10    8   11 1   
    11    8   16 1   
    12    9   10 2   
    13    9   19 1   
    14   11   12 1   
    15   11   17 1   
    16   11   18 1   
    17   12   13 1   
    18   12   14 1   
    19   19   20 1   
    20   19   24 1   
    21   20   21 1   
    22   20   23 1   
    23   20   25 1   
    24   21   22 2   
    25   21   29 1   
    26   23   26 1   
    27   23   27 1   
    28   23   28 1   
    29   29   30 1   
    30   29   37 1   
    31   30   31 1   
    32   30   33 1   
    33   30   38 1   
    34   31   32 2   
    35   31   41 1   
    36   33   34 1   
    37   33   39 1   
    38   33   40 1   
    39   34   35 1   
    40   34   36 1   
    41   41   42 1   
    42   41   45 1   
    43   42   43 1   
    44   42   46 1   
    45   42   47 1   
    46   43   44 2   
    47   43   48 1   
    48   48   49 1   
    49   48   56 1   
    50   49   50 1   
    51   49   52 1   
    52   49   57 1   
    53   50   51 2   
    54   50   62 1   
    55   52   53 1   
    56   52   58 1   
    57   52   59 1   
    58   53   54 1   
    59   53   55 2   
    60   54   60 1   
    61   54   61 1   
    62   62   63 1   
    63   62   66 1   
    64   63   64 1   
    65   63   67 1   
    66   63   68 1   
    67   64   65 2   
    68   64   69 1   
    69   69   70 1   
    70   69   76 1   
    71   70   71 1   
    72   70   73 1   
    73   70   77 1   
    74   71   72 2   
    75   71   83 1   
    76   73   74 1   
    77   73   75 1   
    78   73   78 1   
    79   74   80 1   
    80   74   81 1   
    81   74   82 1   
    82   75   79 1   
    83   83   84 1   
    84   83   91 1   
    85   84   85 1   
    86   84   87 1   
    87   84   92 1   
    88   85   86 2   
    89   85  102 1   
    90   87   88 1   
    91   87   89 1   
    92   87   93 1   
    93   88   90 1   
    94   88   94 1   
    95   88   95 1   
    96   89   96 1   
    97   89   97 1   
    98   89   98 1   
    99   90   99 1   
   100   90  100 1   
   101   90  101 1   
   102  102  103 1   
   103  102  110 1   
   104  103  104 1   
   105  103  106 1   
   106  103  111 1   
   107  104  105 2   
   108  104  114 1   
   109  106  107 1   
   110  106  112 1   
   111  106  113 1   
   112  107  108 1   
   113  107  109 1   
   114  114  115 1   
   115  114  125 1   
   116  115  116 1   
   117  115  118 1   
   118  115  126 1   
   119  116  117 2   
   120  116  134 1   
   121  118  119 1   
   122  118  127 1   
   123  118  128 1   
   124  119  120 ar  
   125  119  121 ar  
   126  120  122 ar  
   127  120  129 1   
   128  121  123 ar  
   129  121  130 1   
   130  122  124 ar  
   131  122  131 1   
   132  123  124 ar  
   133  123  132 1   
   134  124  133 1   
   135  134  135 1   
   136  134  140 1   
   137  135  136 1   
   138  135  138 1   
   139  135  141 1   
   140  136  137 2   
   141  136  148 1   
   142  138  139 1   
   143  138  142 1   
   144  138  143 1   
   145  139  140 1   
   146  139  144 1   
   147  139  145 1   
   148  140  146 1   
   149  140  147 1   
   150  148  149 1   
   151  148  157 1   
   152  149  150 1   
   153  149  152 1   
   154  149  158 1   
   155  150  151 2   
   156  150  163 1   
   157  152  153 1   
   158  152  159 1   
   159  152  160 1   
   160  153  154 1   
   161  153  161 1   
   162  153  162 1   
   163  154  155 1   
   164  154  156 1   
   165  163  164 1   
   166  163  168 1   
   167  164  165 1   
   168  164  166 1   
   169  164  167 1   
   170  170  171 1   
   171  170  172 1   
   172  173  174 1   
   173  173  175 1   
   174  176  177 1   
   175  176  178 1   
   176  179  180 1   
   177  179  181 1   
   178  182  183 1   
   179  182  184 1   
@<TRIPOS>SUBSTRUCTURE
     1 MOL         1 TEMP              0 ****  ****    0 ROOT
