@<TRIPOS>MOLECULE
MOL
  184   179     1     0     0
SMALL
resp


@<TRIPOS>ATOM
      1 C1         -2.1300   -5.8720   -2.9070 c3        1 MOL     -0.463510
      2 C2         -3.5130   -5.9610   -2.2430 c         1 MOL      0.692575
      3 O1         -3.6480   -6.5540   -1.1830 o         1 MOL     -0.579398
      4 H1         -1.6010   -6.8170   -2.7740 hc        1 MOL      0.118493
      5 H2         -2.2500   -5.6710   -3.9720 hc        1 MOL      0.118493
      6 H3         -1.5560   -5.0670   -2.4480 hc        1 MOL      0.118493
      7 N1         -4.5890   -5.4410   -2.8840 n         1 MOL     -0.566189
      8 C3         -5.9590   -5.4380   -2.3480 c3        1 MOL      0.253677
      9 C4         -6.0800   -4.3700   -1.1960 c         1 MOL      0.411243
     10 O2         -6.6610   -3.3330   -1.4420 o         1 MOL     -0.446307
     11 C5         -6.9190   -5.1300   -3.4950 c3        1 MOL     -0.347324
     12 C6         -8.3910   -5.0890   -3.0900 c         1 MOL      0.764327
     13 O3         -8.8230   -5.7040   -2.0480 o         1 MOL     -0.732102
     14 O4         -9.1730   -4.4220   -3.7580 o         1 MOL     -0.732102
     15 H4         -4.3560   -4.9580   -3.7350 hn        1 MOL      0.302999
     16 H5         -6.2180   -6.3210   -1.7690 h1        1 MOL      0.009680
     17 H6         -6.7850   -5.8310   -4.3190 hc        1 MOL      0.050577
     18 H7         -6.6040   -4.1670   -3.8980 hc        1 MOL      0.050577
     19 N2         -5.6070   -4.7350   -0.0080 n         1 MOL     -0.611493
     20 C7         -5.7300   -3.9210    1.1740 c3        1 MOL      0.694309
     21 C8         -4.3250   -3.7760    1.8240 c         1 MOL      0.281794
     22 O5         -3.4090   -4.5700    1.5920 o         1 MOL     -0.480844
     23 C9         -6.6400   -4.6720    2.1230 c3        1 MOL     -0.217199
     24 H8         -4.9180   -5.4770    0.0170 hn        1 MOL      0.310356
     25 H9         -6.1660   -2.9620    0.9110 h1        1 MOL     -0.086347
     26 H10        -6.2020   -5.6190    2.4420 hc        1 MOL      0.032397
     27 H11        -6.8430   -4.0480    2.9990 hc        1 MOL      0.032397
     28 H12        -7.6420   -4.8130    1.7260 hc        1 MOL      0.032397
     29 N3         -4.0350   -2.6760    2.5460 n         1 MOL     -0.490204
     30 C10        -5.0340   -1.6830    3.1410 c3        1 MOL      0.099809
     31 C11        -5.3470   -0.5020    2.1890 c         1 MOL      0.529208
     32 O6         -4.5760   -0.2450    1.2240 o         1 MOL     -0.522092
     33 C12        -4.5020   -1.2230    4.4750 c3        1 MOL     -0.275619
     34 C13        -3.0100   -0.8170    4.5140 c         1 MOL      0.669302
     35 O7         -2.6120   -0.2750    3.4630 o         1 MOL     -0.684275
     36 O8         -2.3020   -0.8460    5.5350 o         1 MOL     -0.684275
     37 H13        -3.0700   -2.6380    2.8380 hn        1 MOL      0.397679
     38 H14        -6.0450   -2.0350    3.3370 h1        1 MOL      0.031426
     39 H15        -4.5750   -2.0600    5.1630 hc        1 MOL      0.065879
     40 H16        -4.9950   -0.3320    4.8850 hc        1 MOL      0.065879
     41 N4         -6.3210    0.3340    2.4870 n         1 MOL     -0.381584
     42 C14        -6.5440    1.6260    1.8310 c3        1 MOL     -0.107687
     43 C15        -7.2050    1.4560    0.4940 c         1 MOL      0.654056
     44 O9         -8.0760    0.6160    0.3820 o         1 MOL     -0.532192
     45 H17        -6.8810    0.2040    3.3180 hn        1 MOL      0.278071
     46 H18        -5.5920    2.1590    1.7760 h1        1 MOL      0.071276
     47 H19        -7.2460    2.1730    2.4660 h1        1 MOL      0.071276
     48 N5         -6.8760    2.2490   -0.5200 n         1 MOL     -0.519809
     49 C16        -5.9630    3.4180   -0.4990 c3        1 MOL      0.032552
     50 C17        -5.4770    3.6950   -1.9620 c         1 MOL      0.424706
     51 O10        -6.2000    3.6720   -2.9470 o         1 MOL     -0.453197
     52 C18        -6.8790    4.5890    0.0280 c3        1 MOL     -0.376738
     53 C19        -6.2720    5.9620   -0.0410 c         1 MOL      0.753829
     54 N6         -5.0500    6.1780    0.4600 n         1 MOL     -0.850990
     55 O11        -6.8340    6.9020   -0.5830 o         1 MOL     -0.567670
     56 H20        -7.4300    2.1970   -1.3650 hn        1 MOL      0.331951
     57 H21        -5.1370    3.2770    0.1830 h1        1 MOL      0.095102
     58 H22        -7.0520    4.4050    1.1000 hc        1 MOL      0.125503
     59 H23        -7.7900    4.6780   -0.5670 hc        1 MOL      0.125503
     60 H24        -4.5620    5.4200    0.9130 hn        1 MOL      0.368985
     61 H25        -4.5550    7.0460    0.3260 hn        1 MOL      0.368985
     62 N7         -4.2520    4.2820   -1.9280 n         1 MOL     -0.119485
     63 C20        -3.5580    4.8380   -3.0760 c3        1 MOL     -0.420980
     64 C21        -2.1090    5.2940   -2.9380 c         1 MOL      0.625691
     65 O12        -1.6510    5.9410   -3.8910 o         1 MOL     -0.557398
     66 H26        -3.7680    4.1910   -1.0500 hn        1 MOL      0.132718
     67 H27        -4.1760    5.7270   -3.1930 h1        1 MOL      0.188308
     68 H28        -3.6250    4.2270   -3.9800 h1        1 MOL      0.188308
     69 N8         -1.3670    4.9630   -1.8490 n         1 MOL     -0.447131
     70 C22         0.0560    5.3860   -1.5950 c3        1 MOL      0.011704
     71 C23         0.8600    4.1610   -1.3580 c         1 MOL      0.577205
     72 O13         0.2420    3.0880   -1.0990 o         1 MOL     -0.513843
     73 C24         0.0710    6.4970   -0.5020 c3        1 MOL      0.414380
     74 C25        -0.6190    7.8200   -0.8860 c3        1 MOL     -0.445317
     75 O14        -0.5510    6.0420    0.5980 oh        1 MOL     -0.616643
     76 H29        -1.7810    4.3340   -1.1800 hn        1 MOL      0.292585
     77 H30         0.5400    5.8680   -2.4390 h1        1 MOL      0.060816
     78 H31         1.0810    6.8400   -0.2930 h1        1 MOL     -0.022367
     79 H32         0.0510    5.5110    1.1120 ho        1 MOL      0.408332
     80 H33        -1.6750    7.5880   -0.7260 hc        1 MOL      0.119623
     81 H34        -0.2930    8.6830   -0.3070 hc        1 MOL      0.119623
     82 H35        -0.2620    8.1300   -1.8690 hc        1 MOL      0.119623
     83 N9          2.1710    4.3760   -1.5390 n         1 MOL     -0.480644
     84 C26         3.2310    3.3850   -1.2950 c3        1 MOL     -0.156830
     85 C27         3.9180    3.5870    0.0080 c         1 MOL      0.437629
     86 O15         4.5030    4.6190    0.2160 o         1 MOL     -0.548769
     87 C28         4.2510    3.3500   -2.4370 c3        1 MOL      0.303768
     88 C29         5.2820    2.2160   -2.3990 c3        1 MOL      0.177758
     89 C30         3.6100    3.4560   -3.7990 c3        1 MOL     -0.310212
     90 C31         6.4270    2.5370   -3.3940 c3        1 MOL     -0.028389
     91 H36         2.4820    5.2650   -1.9270 hn        1 MOL      0.296510
     92 H37         2.6960    2.4410   -1.3720 h1        1 MOL      0.171234
     93 H38         4.8260    4.2700   -2.3160 hc        1 MOL     -0.031958
     94 H39         4.8620    1.2360   -2.6100 hc        1 MOL     -0.069842
     95 H40         5.8460    2.2320   -1.4670 hc        1 MOL     -0.069842
     96 H41         3.3020    2.5140   -4.2530 hc        1 MOL      0.056664
     97 H42         2.7250    4.0840   -3.8010 hc        1 MOL      0.056664
     98 H43         4.3510    3.7860   -4.5260 hc        1 MOL      0.056664
     99 H44         7.3040    1.9440   -3.1500 hc        1 MOL     -0.011209
    100 H45         6.1060    2.1880   -4.3810 hc        1 MOL     -0.011209
    101 H46         6.6780    3.5900   -3.4730 hc        1 MOL     -0.011209
    102 N10         3.9320    2.5170    0.8040 n         1 MOL     -0.399655
    103 C32         4.6080    2.4040    2.1540 c3        1 MOL      0.212083
    104 C33         5.6310    1.2200    2.1160 c         1 MOL      0.345390
    105 O16         6.3670    1.0970    3.1250 o         1 MOL     -0.526580
    106 C34         3.6680    2.3950    3.4070 c3        1 MOL     -0.067561
    107 C35         2.4220    1.6330    3.1540 c         1 MOL      0.709630
    108 O17         2.2820    0.4510    3.5280 o         1 MOL     -0.754504
    109 O18         1.4520    2.1420    2.5480 o         1 MOL     -0.754504
    110 H47         3.5340    1.6870    0.3820 hn        1 MOL      0.390006
    111 H48         5.2670    3.2650    2.2770 h1        1 MOL      0.040911
    112 H49         3.3460    3.3820    3.7180 hc        1 MOL      0.010740
    113 H50         4.2870    2.0210    4.2250 hc        1 MOL      0.010740
    114 N11         5.7960    0.3520    1.0600 n         1 MOL     -0.310592
    115 C36         6.7400   -0.6880    0.9550 c3        1 MOL      0.412005
    116 C37         6.0880   -1.9140    0.3340 c         1 MOL      0.119502
    117 O19         6.3830   -2.2940   -0.8500 o         1 MOL     -0.479576
    118 C38         7.9980   -0.2420    0.2660 c3        1 MOL     -0.497812
    119 C39         9.2140   -1.1440    0.1310 ca        1 MOL      0.339822
    120 C40         9.9390   -1.2750   -1.0850 ca        1 MOL     -0.239480
    121 C41         9.8180   -1.6310    1.3030 ca        1 MOL     -0.239480
    122 C42        11.1680   -1.8980   -1.1090 ca        1 MOL     -0.091547
    123 C43        10.9990   -2.3790    1.2230 ca        1 MOL     -0.091547
    124 C44        11.7020   -2.5650    0.0070 ca        1 MOL     -0.169617
    125 H51         5.1050    0.4420    0.3230 hn        1 MOL      0.203348
    126 H52         6.9050   -0.9990    1.9860 h1        1 MOL     -0.016711
    127 H53         8.4720    0.5610    0.8250 hc        1 MOL      0.135552
    128 H54         7.6970    0.2080   -0.6820 hc        1 MOL      0.135552
    129 H55         9.4810   -0.7830   -1.9400 ha        1 MOL      0.133177
    130 H56         9.3160   -1.4720    2.2420 ha        1 MOL      0.133177
    131 H57        11.7290   -1.8510   -2.0280 ha        1 MOL      0.094970
    132 H58        11.4070   -2.8790    2.0920 ha        1 MOL      0.094970
    133 H59        12.5730   -3.1940   -0.0570 ha        1 MOL      0.119486
    134 N12         5.2630   -2.6700    1.1240 n         1 MOL      0.107455
    135 C45         4.5770   -3.8910    0.6800 c3        1 MOL      0.005596
    136 C46         3.8640   -3.8800   -0.7340 c         1 MOL      0.300202
    137 O20         3.7660   -4.9440   -1.4070 o         1 MOL     -0.488716
    138 C47         3.6210   -4.2380    1.8510 c3        1 MOL     -0.167717
    139 C48         3.6910   -3.1390    2.8790 c3        1 MOL      0.122009
    140 C49         5.0240   -2.4400    2.5210 c3        1 MOL     -0.134192
    141 H60         5.3150   -4.6810    0.5790 h1        1 MOL      0.053196
    142 H61         2.6250   -4.3350    1.4400 hc        1 MOL      0.056738
    143 H62         3.8960   -5.1800    2.3270 hc        1 MOL      0.056738
    144 H63         2.8310   -2.4820    2.7780 hc        1 MOL      0.016559
    145 H64         3.6940   -3.5280    3.8960 hc        1 MOL      0.016559
    146 H65         4.8870   -1.3590    2.6490 h1        1 MOL      0.043246
    147 H66         5.8040   -2.9290    3.1070 h1        1 MOL      0.043246
    148 N13         3.4310   -2.7050   -1.2240 n         1 MOL     -0.148490
    149 C50         2.8120   -2.5070   -2.5380 c3        1 MOL     -0.161398
    150 C51         3.7760   -2.8110   -3.6830 c         1 MOL      0.458850
    151 O21         3.5440   -3.6140   -4.5780 o         1 MOL     -0.543042
    152 C52         2.3140   -1.0540   -2.7560 c3        1 MOL      0.212901
    153 C53         1.4540   -0.3890   -1.6580 c3        1 MOL     -0.129590
    154 C54         2.2100   -0.1980   -0.3140 c         1 MOL      0.362171
    155 O22         1.5080   -0.1910    0.7120 o         1 MOL     -0.625506
    156 O23         3.4610   -0.0560   -0.3640 o         1 MOL     -0.625506
    157 H67         3.6630   -1.8910   -0.6690 hn        1 MOL      0.330262
    158 H68         1.9590   -3.1810   -2.5860 h1        1 MOL      0.113577
    159 H69         1.7040   -1.1410   -3.6560 hc        1 MOL     -0.076960
    160 H70         3.2490   -0.4950   -2.9000 hc        1 MOL     -0.076960
    161 H71         0.5830   -1.0420   -1.6140 hc        1 MOL      0.052522
    162 H72         1.0580    0.5550   -2.0360 hc        1 MOL      0.052522
    163 N14         4.9330   -2.2060   -3.6820 n         1 MOL     -0.080036
    164 C55         6.0650   -2.4530   -4.5340 c3        1 MOL     -0.393641
    165 H73         6.5160   -3.4090   -4.2690 h1        1 MOL      0.132323
    166 H74         5.7380   -2.4820   -5.5740 h1        1 MOL      0.132323
    167 H75         6.7980   -1.6570   -4.4050 h1        1 MOL      0.132323
    168 H76         5.0820   -1.5200   -2.9550 hn        1 MOL      0.202234
    169 Ca1        -0.2900    0.1450    2.5220 Ca        1 MOL      1.782725
    170 O24        -1.4800    1.2890   -0.0220 oh        1 MOL     -0.815007
    171 H77        -0.8630    1.9800   -0.2720 ho        1 MOL      0.386947
    172 H78        -1.8940    1.0350   -0.8510 ho        1 MOL      0.386947
    173 O25        -0.3650    1.0430    5.0440 oh        1 MOL     -0.815007
    174 H79        -0.9850    0.3420    5.2620 ho        1 MOL      0.386947
    175 H80        -0.5070    1.6970    5.7340 ho        1 MOL      0.386947
    176 O26        -1.7150    2.8310    2.7210 oh        1 MOL     -0.815007
    177 H81        -2.5970    2.7110    3.0680 ho        1 MOL      0.386947
    178 H82        -1.3090    3.4710    3.3040 ho        1 MOL      0.386947
    179 O27        -1.9030   -1.4040    0.8850 oh        1 MOL     -0.815007
    180 H83        -2.8020   -1.4450    1.1890 ho        1 MOL      0.386947
    181 H84        -1.9660   -1.0340    0.0040 ho        1 MOL      0.386947
    182 O28         0.2950   -2.2250    3.6990 oh        1 MOL     -0.815007
    183 H85         0.1600   -3.1740    3.6780 ho        1 MOL      0.386947
    184 H86         0.8290   -2.0740    4.4690 ho        1 MOL      0.386947
@<TRIPOS>BOND
     1    1    2 1   
     2    1    4 1   
     3    1    5 1   
     4    1    6 1   
     5    2    3 2   
     6    2    7 1   
     7    7    8 1   
     8    7   15 1   
     9    8    9 1   
    10    8   11 1   
    11    8   16 1   
    12    9   10 2   
    13    9   19 1   
    14   11   12 1   
    15   11   17 1   
    16   11   18 1   
    17   12   13 1   
    18   12   14 1   
    19   19   20 1   
    20   19   24 1   
    21   20   21 1   
    22   20   23 1   
    23   20   25 1   
    24   21   22 2   
    25   21   29 1   
    26   23   26 1   
    27   23   27 1   
    28   23   28 1   
    29   29   30 1   
    30   29   37 1   
    31   30   31 1   
    32   30   33 1   
    33   30   38 1   
    34   31   32 2   
    35   31   41 1   
    36   33   34 1   
    37   33   39 1   
    38   33   40 1   
    39   34   35 1   
    40   34   36 1   
    41   41   42 1   
    42   41   45 1   
    43   42   43 1   
    44   42   46 1   
    45   42   47 1   
    46   43   44 2   
    47   43   48 1   
    48   48   49 1   
    49   48   56 1   
    50   49   50 1   
    51   49   52 1   
    52   49   57 1   
    53   50   51 2   
    54   50   62 1   
    55   52   53 1   
    56   52   58 1   
    57   52   59 1   
    58   53   54 1   
    59   53   55 2   
    60   54   60 1   
    61   54   61 1   
    62   62   63 1   
    63   62   66 1   
    64   63   64 1   
    65   63   67 1   
    66   63   68 1   
    67   64   65 2   
    68   64   69 1   
    69   69   70 1   
    70   69   76 1   
    71   70   71 1   
    72   70   73 1   
    73   70   77 1   
    74   71   72 2   
    75   71   83 1   
    76   73   74 1   
    77   73   75 1   
    78   73   78 1   
    79   74   80 1   
    80   74   81 1   
    81   74   82 1   
    82   75   79 1   
    83   83   84 1   
    84   83   91 1   
    85   84   85 1   
    86   84   87 1   
    87   84   92 1   
    88   85   86 2   
    89   85  102 1   
    90   87   88 1   
    91   87   89 1   
    92   87   93 1   
    93   88   90 1   
    94   88   94 1   
    95   88   95 1   
    96   89   96 1   
    97   89   97 1   
    98   89   98 1   
    99   90   99 1   
   100   90  100 1   
   101   90  101 1   
   102  102  103 1   
   103  102  110 1   
   104  103  104 1   
   105  103  106 1   
   106  103  111 1   
   107  104  105 2   
   108  104  114 1   
   109  106  107 1   
   110  106  112 1   
   111  106  113 1   
   112  107  108 1   
   113  107  109 1   
   114  114  115 1   
   115  114  125 1   
   116  115  116 1   
   117  115  118 1   
   118  115  126 1   
   119  116  117 2   
   120  116  134 1   
   121  118  119 1   
   122  118  127 1   
   123  118  128 1   
   124  119  120 ar  
   125  119  121 ar  
   126  120  122 ar  
   127  120  129 1   
   128  121  123 ar  
   129  121  130 1   
   130  122  124 ar  
   131  122  131 1   
   132  123  124 ar  
   133  123  132 1   
   134  124  133 1   
   135  134  135 1   
   136  134  140 1   
   137  135  136 1   
   138  135  138 1   
   139  135  141 1   
   140  136  137 2   
   141  136  148 1   
   142  138  139 1   
   143  138  142 1   
   144  138  143 1   
   145  139  140 1   
   146  139  144 1   
   147  139  145 1   
   148  140  146 1   
   149  140  147 1   
   150  148  149 1   
   151  148  157 1   
   152  149  150 1   
   153  149  152 1   
   154  149  158 1   
   155  150  151 2   
   156  150  163 1   
   157  152  153 1   
   158  152  159 1   
   159  152  160 1   
   160  153  154 1   
   161  153  161 1   
   162  153  162 1   
   163  154  155 1   
   164  154  156 1   
   165  163  164 1   
   166  163  168 1   
   167  164  165 1   
   168  164  166 1   
   169  164  167 1   
   170  170  171 1   
   171  170  172 1   
   172  173  174 1   
   173  173  175 1   
   174  176  177 1   
   175  176  178 1   
   176  179  180 1   
   177  179  181 1   
   178  182  183 1   
   179  182  184 1   
@<TRIPOS>SUBSTRUCTURE
     1 MOL         1 TEMP              0 ****  ****    0 ROOT
