@<TRIPOS>MOLECULE
MOL
  192   187     1     0     0
SMALL
resp


@<TRIPOS>ATOM
      1 C1         -4.4910   -0.9700    2.7470 c3        1 MOL     -0.113283
      2 C2         -3.6670   -1.9470    1.8850 c         1 MOL      0.586213
      3 O1         -2.6090   -1.5460    1.4160 o         1 MOL     -0.508280
      4 H1         -5.5320   -0.9890    2.4230 hc        1 MOL      0.009498
      5 H2         -4.4320   -1.2690    3.7940 hc        1 MOL      0.009498
      6 H3         -4.0940    0.0390    2.6340 hc        1 MOL      0.009498
      7 N1         -4.1710   -3.1280    1.6110 n         1 MOL     -0.515793
      8 C3         -3.5560   -4.2510    0.9000 c3        1 MOL      0.013454
      9 C4         -2.0410   -4.5300    1.1660 c         1 MOL      0.704320
     10 O2         -1.2920   -4.8300    0.2090 o         1 MOL     -0.553223
     11 C5         -3.9730   -4.3130   -0.5340 c3        1 MOL     -0.002794
     12 C6         -5.3530   -3.7550   -0.7770 c         1 MOL      0.858373
     13 O3         -5.5830   -3.0050   -1.7470 o         1 MOL     -0.864428
     14 O4         -6.2540   -4.2440   -0.0480 o         1 MOL     -0.864428
     15 H4         -5.0250   -3.3540    2.0970 hn        1 MOL      0.275870
     16 H5         -4.0540   -5.1340    1.3100 h1        1 MOL      0.054996
     17 H6         -3.8720   -5.3440   -0.8850 hc        1 MOL      0.020764
     18 H7         -3.2900   -3.6810   -1.1010 hc        1 MOL      0.020764
     19 N2         -1.6190   -4.3270    2.4430 n         1 MOL     -0.729799
     20 C7         -0.1460   -4.3100    2.6690 c3        1 MOL      0.061340
     21 C8          0.6240   -5.5640    2.2410 c         1 MOL      0.555006
     22 O5          0.0700   -6.6250    2.5360 o         1 MOL     -0.594118
     23 C9          0.0920   -4.0330    4.1810 c3        1 MOL     -0.021368
     24 C10        -0.5250   -5.0950    5.1290 c3        1 MOL      0.232936
     25 C11        -0.3740   -2.6580    4.6360 c3        1 MOL     -0.030492
     26 C12         0.0450   -4.9440    6.5600 c3        1 MOL     -0.200611
     27 H8         -2.2820   -4.0250    3.1420 hn        1 MOL      0.366138
     28 H9          0.3180   -3.4850    2.1430 h1        1 MOL      0.143221
     29 H10         1.1690   -3.9840    4.3550 hc        1 MOL      0.048291
     30 H11        -0.2680   -6.0860    4.7640 hc        1 MOL     -0.047544
     31 H12        -1.6200   -5.1660    5.1730 hc        1 MOL     -0.047544
     32 H13         0.2130   -2.2670    5.4640 hc        1 MOL      0.009627
     33 H14        -0.3820   -1.9880    3.7760 hc        1 MOL      0.009627
     34 H15        -1.4070   -2.7270    4.9910 hc        1 MOL      0.009627
     35 H16         1.1320   -4.9090    6.4440 hc        1 MOL      0.027990
     36 H17        -0.4260   -4.1350    7.1120 hc        1 MOL      0.027990
     37 H18        -0.1510   -5.8180    7.1960 hc        1 MOL      0.027990
     38 N3          1.7830   -5.5770    1.6440 n         1 MOL     -0.425940
     39 C13         2.5330   -4.4830    1.0960 c3        1 MOL     -0.075616
     40 C14         3.3620   -5.0220   -0.0040 c         1 MOL      0.506865
     41 O6          4.3230   -5.8320    0.1560 o         1 MOL     -0.492202
     42 C15         3.4110   -3.9080    2.1850 c3        1 MOL     -0.273924
     43 C16         4.5970   -3.0850    1.6970 c         1 MOL      0.660378
     44 O7          4.3610   -2.2650    0.7510 o         1 MOL     -0.656770
     45 O8          5.6800   -3.2480    2.3200 o         1 MOL     -0.656770
     46 H19         2.1990   -6.4790    1.5010 hn        1 MOL      0.304697
     47 H20         1.9170   -3.7360    0.5960 h1        1 MOL      0.052854
     48 H21         3.7410   -4.7830    2.7500 hc        1 MOL      0.078650
     49 H22         2.7810   -3.2860    2.8210 hc        1 MOL      0.078650
     50 N4          2.9720   -4.6440   -1.2480 n         1 MOL     -0.272165
     51 C17         3.4290   -5.1790   -2.4880 c3        1 MOL     -0.269246
     52 C18         4.8030   -4.5990   -3.0030 c         1 MOL      0.636479
     53 O9          5.4580   -5.1280   -3.8710 o         1 MOL     -0.615821
     54 H23         2.1290   -4.1000   -1.4030 hn        1 MOL      0.319901
     55 H24         2.7040   -5.1280   -3.3030 h1        1 MOL      0.097551
     56 H25         3.7700   -6.2100   -2.3210 h1        1 MOL      0.097551
     57 N5          5.2570   -3.5330   -2.3980 n         1 MOL     -0.258526
     58 C19         6.4090   -2.6830   -2.8930 c3        1 MOL      0.045495
     59 C20         7.4280   -2.3520   -1.7980 c         1 MOL      0.370775
     60 O10         8.6410   -2.5260   -1.9570 o         1 MOL     -0.557145
     61 C21         5.8280   -1.3910   -3.5800 c3        1 MOL     -0.080346
     62 C22         4.7140   -0.6680   -2.7060 c         1 MOL      0.633992
     63 O11         3.5650   -1.0030   -3.0190 o         1 MOL     -0.658693
     64 O12         5.0850    0.1910   -1.8310 o         1 MOL     -0.658693
     65 H26         4.7910   -3.2330   -1.5570 hn        1 MOL      0.127756
     66 H27         6.9580   -3.2640   -3.6370 h1        1 MOL      0.054891
     67 H28         5.2830   -1.8580   -4.4040 hc        1 MOL     -0.006062
     68 H29         6.5520   -0.7220   -4.0350 hc        1 MOL     -0.006062
     69 N6          6.9130   -1.8050   -0.6530 n         1 MOL     -0.115861
     70 C23         7.8270   -1.1860    0.3100 c3        1 MOL     -0.290985
     71 C24         8.1310    0.3360    0.1760 c         1 MOL      0.473563
     72 O13         9.0210    0.9250    0.8100 o         1 MOL     -0.596452
     73 H30         5.9280   -1.8650   -0.4510 hn        1 MOL      0.257542
     74 H31         8.8040   -1.6700    0.2500 h1        1 MOL      0.130951
     75 H32         7.2980   -1.2410    1.2710 h1        1 MOL      0.130951
     76 N7          7.4230    0.9950   -0.7760 n         1 MOL     -0.013458
     77 C25         7.3910    2.5220   -1.1750 c3        1 MOL     -0.117976
     78 C26         7.1710    3.4160    0.1620 c         1 MOL      0.492848
     79 O14         7.6860    4.5330    0.2670 o         1 MOL     -0.537714
     80 C27         8.5970    2.8350   -2.0280 c3        1 MOL      0.052489
     81 C28         8.5700    1.8920   -3.2970 c3        1 MOL     -0.100178
     82 C29         9.7600    2.0910   -4.2620 c         1 MOL      0.544865
     83 N8         10.4580    1.0620   -4.5620 n         1 MOL     -0.671578
     84 O15        10.0680    3.1810   -4.7760 o         1 MOL     -0.590501
     85 H33         6.7690    0.4680   -1.3300 hn        1 MOL      0.046763
     86 H34         6.5640    2.7330   -1.8480 h1        1 MOL      0.122436
     87 H35         9.5260    2.6610   -1.4890 hc        1 MOL      0.013308
     88 H36         8.5970    3.8250   -2.4900 hc        1 MOL      0.013308
     89 H37         7.6040    1.9940   -3.7860 hc        1 MOL      0.044887
     90 H38         8.6560    0.8480   -2.9930 hc        1 MOL      0.044887
     91 H39        10.1490    0.1560   -4.2470 hn        1 MOL      0.326360
     92 H40        11.2460    1.1590   -5.2020 hn        1 MOL      0.326360
     93 N9          6.3030    2.9490    1.0510 n         1 MOL     -0.258395
     94 C30         5.8060    3.5890    2.3290 c3        1 MOL     -0.262809
     95 C31         4.3040    3.5990    2.4890 c         1 MOL      0.732368
     96 O16         3.7710    4.2660    3.3770 o         1 MOL     -0.600791
     97 C32         6.4950    2.9220    3.5300 c3        1 MOL      0.420903
     98 C33         6.2080    1.5350    3.7980 c3        1 MOL     -0.392086
     99 C34         8.0510    3.1170    3.5530 c3        1 MOL     -0.392086
    100 H41         5.8280    2.0950    0.7930 hn        1 MOL      0.190594
    101 H42         6.1820    4.6100    2.3780 h1        1 MOL      0.115187
    102 H43         6.1860    3.4310    4.4410 hc        1 MOL     -0.067715
    103 H44         6.5090    0.9970    2.9020 hc        1 MOL      0.091202
    104 H45         6.8160    1.0570    4.5720 hc        1 MOL      0.091202
    105 H46         5.1330    1.4720    3.9740 hc        1 MOL      0.091202
    106 H47         8.4100    2.8590    4.5460 hc        1 MOL      0.091202
    107 H48         8.5670    2.6270    2.7240 hc        1 MOL      0.091202
    108 H49         8.2390    4.1830    3.4110 hc        1 MOL      0.091202
    109 N10         3.5820    2.7950    1.6830 n         1 MOL     -0.636126
    110 C35         2.1910    2.4480    1.9170 c3        1 MOL      0.399399
    111 C36         1.3100    2.8480    0.7730 c         1 MOL      0.498412
    112 O17         1.6980    2.8710   -0.3990 o         1 MOL     -0.561517
    113 C37         2.1200    1.0320    2.4720 c3        1 MOL     -0.164909
    114 C38         0.6990    0.5150    2.5240 c         1 MOL      0.491563
    115 N11         0.3020   -0.4020    1.6940 n         1 MOL     -0.575829
    116 O18        -0.0770    1.0260    3.2610 o         1 MOL     -0.580928
    117 H50         4.0790    2.1700    1.0620 hn        1 MOL      0.282396
    118 H51         1.8660    3.0770    2.7460 h1        1 MOL     -0.002414
    119 H52         2.5020    1.0150    3.4950 hc        1 MOL      0.064370
    120 H53         2.7430    0.3190    1.9380 hc        1 MOL      0.064370
    121 H54         0.9630   -0.6830    0.9740 hn        1 MOL      0.308178
    122 H55        -0.6810   -0.6180    1.7550 hn        1 MOL      0.308178
    123 N12         0.0920    3.0580    1.0760 n         1 MOL     -0.530771
    124 C39        -0.9940    3.1840    0.0820 c3        1 MOL      0.318212
    125 C40        -2.1020    4.2100    0.5560 c         1 MOL      0.398369
    126 O19        -2.4290    4.2380    1.7440 o         1 MOL     -0.535141
    127 C41        -1.6080    1.7610   -0.1390 c3        1 MOL     -0.258599
    128 C42        -2.4460    1.4260   -1.4030 ca        1 MOL     -0.017379
    129 C43        -3.4250    0.4390   -1.2910 ca        1 MOL     -0.092442
    130 C44        -2.1790    2.0040   -2.6920 ca        1 MOL     -0.092442
    131 C45        -4.0700   -0.0600   -2.4420 ca        1 MOL     -0.284905
    132 C46        -2.8860    1.5610   -3.7720 ca        1 MOL     -0.284905
    133 C47        -3.7940    0.5050   -3.7130 ca        1 MOL      0.332700
    134 O20        -4.3030   -0.0190   -4.8040 oh        1 MOL     -0.587174
    135 H56        -0.2130    2.8100    2.0050 hn        1 MOL      0.282857
    136 H57        -0.6130    3.5820   -0.8610 h1        1 MOL      0.023522
    137 H58        -2.1550    1.5070    0.7680 hc        1 MOL      0.135317
    138 H59        -0.7760    1.0670   -0.2080 hc        1 MOL      0.135317
    139 H60        -3.7470    0.0710   -0.3190 ha        1 MOL      0.131626
    140 H61        -1.3740    2.6900   -2.9310 ha        1 MOL      0.131626
    141 H62        -4.8440   -0.8080   -2.3260 ha        1 MOL      0.167503
    142 H63        -2.6940    1.9180   -4.7730 ha        1 MOL      0.167503
    143 H64        -4.8610   -0.7410   -4.5000 ho        1 MOL      0.470516
    144 N13        -2.6180    4.9170   -0.4500 n         1 MOL     -0.459145
    145 C48        -3.9360    5.4490   -0.2480 c3        1 MOL      0.328802
    146 C49        -4.9220    4.7790   -1.2880 c         1 MOL      0.397560
    147 O21        -4.7820    4.8800   -2.5250 o         1 MOL     -0.552745
    148 C50        -3.9370    6.9630   -0.4750 c3        1 MOL      0.098076
    149 C51        -2.9660    7.7670    0.3500 c3        1 MOL     -0.209269
    150 C52        -2.8530    9.0770   -0.3420 c         1 MOL      0.706584
    151 O22        -2.0730    9.2660   -1.2870 o         1 MOL     -0.666287
    152 O23        -3.4290   10.0110    0.2230 o         1 MOL     -0.666287
    153 H65        -2.1850    4.8420   -1.3550 hn        1 MOL      0.300346
    154 H66        -4.3310    5.3130    0.7640 h1        1 MOL     -0.008421
    155 H67        -4.9080    7.4190   -0.2640 hc        1 MOL     -0.018899
    156 H68        -3.7000    7.1090   -1.5260 hc        1 MOL     -0.018899
    157 H69        -1.9720    7.3110    0.2930 hc        1 MOL      0.037975
    158 H70        -3.3830    7.9340    1.3470 hc        1 MOL      0.037975
    159 N14        -5.8300    3.8650   -0.9450 n         1 MOL     -0.429513
    160 C53        -6.2630    3.4090    0.3620 c3        1 MOL     -0.116866
    161 C54        -6.7180    4.5800    1.3300 c         1 MOL      0.381899
    162 O24        -7.5100    5.4500    0.9620 o         1 MOL     -0.496145
    163 C55        -7.5180    2.4930    0.1920 c3        1 MOL      0.140375
    164 C56        -7.0430    1.1530   -0.4320 c3        1 MOL     -0.233100
    165 C57        -8.2190    0.2520   -0.7690 c         1 MOL      0.633239
    166 O25        -9.2020    0.7850   -1.3210 o         1 MOL     -0.680370
    167 O26        -8.1810   -0.9770   -0.6170 o         1 MOL     -0.680370
    168 H71        -6.2900    3.3990   -1.7190 hn        1 MOL      0.324997
    169 H72        -5.4200    2.8660    0.7910 h1        1 MOL      0.103855
    170 H73        -8.2650    2.9180   -0.4640 hc        1 MOL     -0.000139
    171 H74        -7.8980    2.2860    1.1990 hc        1 MOL     -0.000139
    172 H75        -6.2740    0.7920    0.2580 hc        1 MOL      0.066959
    173 H76        -6.6050    1.2480   -1.4190 hc        1 MOL      0.066959
    174 N15        -6.1520    4.5820    2.5560 n         1 MOL     -0.123006
    175 C58        -6.3250    5.5830    3.6410 c3        1 MOL     -0.486283
    176 H77        -7.3810    5.6550    3.9030 h1        1 MOL      0.171270
    177 H78        -5.7540    5.2740    4.5160 h1        1 MOL      0.171270
    178 H79        -5.9700    6.5550    3.2990 h1        1 MOL      0.171270
    179 H80        -5.6270    3.7470    2.7800 hn        1 MOL      0.213288
    180 Ca1        -8.2380   -3.4550   -1.4690 Ca        1 MOL      1.653814
    181 O27        -9.6940   -5.7280   -1.2470 oh        1 MOL     -0.817039
    182 H81       -10.5900   -5.8500   -1.5560 ho        1 MOL      0.386256
    183 H82        -9.3390   -6.6100   -1.1980 ho        1 MOL      0.386256
    184 O28        -8.8540   -2.3280   -3.6740 oh        1 MOL     -0.817039
    185 O29        -7.4620   -5.0220   -3.4530 oh        1 MOL     -0.817039
    186 H83        -8.8460   -2.6680   -4.5720 ho        1 MOL      0.386256
    187 H84        -7.7640   -5.8580   -3.8110 ho        1 MOL      0.386256
    188 H85        -8.7830   -1.3780   -3.7730 ho        1 MOL      0.386256
    189 H86        -6.8630   -4.6750   -4.1210 ho        1 MOL      0.386256
    190 O30       -10.8130   -2.7440   -1.3960 oh        1 MOL     -0.817039
    191 H87       -11.4780   -3.2550   -0.9380 ho        1 MOL      0.386256
    192 H88       -11.0160   -1.8430   -1.1750 ho        1 MOL      0.386256
@<TRIPOS>BOND
     1    1    2 1   
     2    1    4 1   
     3    1    5 1   
     4    1    6 1   
     5    2    3 2   
     6    2    7 1   
     7    7    8 1   
     8    7   15 1   
     9    8    9 1   
    10    8   11 1   
    11    8   16 1   
    12    9   10 2   
    13    9   19 1   
    14   11   12 1   
    15   11   17 1   
    16   11   18 1   
    17   12   13 1   
    18   12   14 1   
    19   19   20 1   
    20   19   27 1   
    21   20   21 1   
    22   20   23 1   
    23   20   28 1   
    24   21   22 2   
    25   21   38 1   
    26   23   24 1   
    27   23   25 1   
    28   23   29 1   
    29   24   26 1   
    30   24   30 1   
    31   24   31 1   
    32   25   32 1   
    33   25   33 1   
    34   25   34 1   
    35   26   35 1   
    36   26   36 1   
    37   26   37 1   
    38   38   39 1   
    39   38   46 1   
    40   39   40 1   
    41   39   42 1   
    42   39   47 1   
    43   40   41 2   
    44   40   50 1   
    45   42   43 1   
    46   42   48 1   
    47   42   49 1   
    48   43   44 1   
    49   43   45 1   
    50   50   51 1   
    51   50   54 1   
    52   51   52 1   
    53   51   55 1   
    54   51   56 1   
    55   52   53 2   
    56   52   57 1   
    57   57   58 1   
    58   57   65 1   
    59   58   59 1   
    60   58   61 1   
    61   58   66 1   
    62   59   60 2   
    63   59   69 1   
    64   61   62 1   
    65   61   67 1   
    66   61   68 1   
    67   62   63 1   
    68   62   64 1   
    69   69   70 1   
    70   69   73 1   
    71   70   71 1   
    72   70   74 1   
    73   70   75 1   
    74   71   72 2   
    75   71   76 1   
    76   76   77 1   
    77   76   85 1   
    78   77   78 1   
    79   77   80 1   
    80   77   86 1   
    81   78   79 2   
    82   78   93 1   
    83   80   81 1   
    84   80   87 1   
    85   80   88 1   
    86   81   82 1   
    87   81   89 1   
    88   81   90 1   
    89   82   83 1   
    90   82   84 2   
    91   83   91 1   
    92   83   92 1   
    93   93   94 1   
    94   93  100 1   
    95   94   95 1   
    96   94   97 1   
    97   94  101 1   
    98   95   96 2   
    99   95  109 1   
   100   97   98 1   
   101   97   99 1   
   102   97  102 1   
   103   98  103 1   
   104   98  104 1   
   105   98  105 1   
   106   99  106 1   
   107   99  107 1   
   108   99  108 1   
   109  109  110 1   
   110  109  117 1   
   111  110  111 1   
   112  110  113 1   
   113  110  118 1   
   114  111  112 2   
   115  111  123 1   
   116  113  114 1   
   117  113  119 1   
   118  113  120 1   
   119  114  115 1   
   120  114  116 2   
   121  115  121 1   
   122  115  122 1   
   123  123  124 1   
   124  123  135 1   
   125  124  125 1   
   126  124  127 1   
   127  124  136 1   
   128  125  126 2   
   129  125  144 1   
   130  127  128 1   
   131  127  137 1   
   132  127  138 1   
   133  128  129 ar  
   134  128  130 ar  
   135  129  131 ar  
   136  129  139 1   
   137  130  132 ar  
   138  130  140 1   
   139  131  133 ar  
   140  131  141 1   
   141  132  133 ar  
   142  132  142 1   
   143  133  134 1   
   144  134  143 1   
   145  144  145 1   
   146  144  153 1   
   147  145  146 1   
   148  145  148 1   
   149  145  154 1   
   150  146  147 2   
   151  146  159 1   
   152  148  149 1   
   153  148  155 1   
   154  148  156 1   
   155  149  150 1   
   156  149  157 1   
   157  149  158 1   
   158  150  151 1   
   159  150  152 1   
   160  159  160 1   
   161  159  168 1   
   162  160  161 1   
   163  160  163 1   
   164  160  169 1   
   165  161  162 2   
   166  161  174 1   
   167  163  164 1   
   168  163  170 1   
   169  163  171 1   
   170  164  165 1   
   171  164  172 1   
   172  164  173 1   
   173  165  166 1   
   174  165  167 1   
   175  174  175 1   
   176  174  179 1   
   177  175  176 1   
   178  175  177 1   
   179  175  178 1   
   180  181  182 1   
   181  181  183 1   
   182  184  186 1   
   183  184  188 1   
   184  185  187 1   
   185  185  189 1   
   186  190  191 1   
   187  190  192 1   
@<TRIPOS>SUBSTRUCTURE
     1 MOL         1 TEMP              0 ****  ****    0 ROOT
