@<TRIPOS>MOLECULE
MOL
  178   175     1     0     0
SMALL
resp


@<TRIPOS>ATOM
      1 C1          1.9310   -4.0870    5.3860 c3        1 MOL     -0.337838
      2 C2          3.1990   -4.4050    4.6950 c         1 MOL      0.672508
      3 O1          4.2670   -4.5440    5.2680 o         1 MOL     -0.624166
      4 H1          1.6710   -4.9030    6.0610 hc        1 MOL      0.063466
      5 H2          2.0490   -3.1670    5.9590 hc        1 MOL      0.063466
      6 H3          1.1380   -3.9570    4.6500 hc        1 MOL      0.063466
      7 N1          3.0350   -4.6300    3.4350 n         1 MOL     -0.481026
      8 C3          4.1520   -4.9990    2.5540 c3        1 MOL      0.062815
      9 C4          4.0030   -4.7230    1.0050 c         1 MOL      0.377625
     10 O2          2.8720   -4.9240    0.4730 o         1 MOL     -0.544450
     11 C5          4.4170   -6.5160    2.7340 c3        1 MOL     -0.048578
     12 C6          5.8430   -6.7890    2.2660 c         1 MOL      0.650577
     13 O3          6.6930   -5.8630    1.9500 o         1 MOL     -0.701561
     14 O4          6.0560   -7.9800    2.1010 o         1 MOL     -0.701561
     15 H4          2.0690   -4.6250    3.1230 hn        1 MOL      0.326980
     16 H5          4.9870   -4.3530    2.8360 h1        1 MOL      0.061753
     17 H6          3.7060   -7.1840    2.2580 hc        1 MOL      0.029482
     18 H7          4.3090   -6.8240    3.7740 hc        1 MOL      0.029482
     19 N2          5.0950   -4.3900    0.3050 n         1 MOL     -0.342694
     20 C7          5.1710   -4.1360   -1.0540 c3        1 MOL      0.806871
     21 C8          4.6430   -2.7190   -1.4650 c         1 MOL      0.020766
     22 O5          4.4680   -1.8790   -0.5810 o         1 MOL     -0.480594
     23 C9          6.5560   -4.4010   -1.5300 c3        1 MOL     -0.430481
     24 H8          5.9710   -4.4910    0.8050 hn        1 MOL      0.192092
     25 H9          4.4940   -4.8390   -1.5480 h1        1 MOL     -0.131146
     26 H10         6.6050   -4.5160   -2.6100 hc        1 MOL      0.088849
     27 H11         7.1260   -3.5040   -1.3010 hc        1 MOL      0.088849
     28 H12         6.8580   -5.2990   -0.9920 hc        1 MOL      0.088849
     29 N3          4.5080   -2.4490   -2.7820 n         1 MOL     -0.608323
     30 C10         3.8250   -1.2740   -3.3180 c3        1 MOL      0.157740
     31 C11         4.8040   -0.1210   -3.7070 c         1 MOL      0.556037
     32 O6          4.5990    0.6830   -4.5980 o         1 MOL     -0.540427
     33 C12         2.8720   -1.6770   -4.3900 c3        1 MOL     -0.148165
     34 C13         1.8020   -2.6720   -3.8810 c         1 MOL      0.616001
     35 O7          0.8950   -2.9870   -4.7270 o         1 MOL     -0.647482
     36 O8          1.7140   -2.9620   -2.6080 o         1 MOL     -0.647482
     37 H13         4.6070   -3.1970   -3.4550 hn        1 MOL      0.367085
     38 H14         3.2120   -0.9190   -2.4840 h1        1 MOL      0.096515
     39 H15         3.4250   -2.0820   -5.2290 hc        1 MOL      0.036096
     40 H16         2.3330   -0.7880   -4.7210 hc        1 MOL      0.036096
     41 N4          5.9500   -0.0070   -3.0000 n         1 MOL     -0.444606
     42 C14         6.9920    0.9620   -3.1870 c3        1 MOL     -0.214365
     43 C15         6.5470    2.3910   -2.7830 c         1 MOL      0.646657
     44 O9          7.4120    3.1680   -2.3800 o         1 MOL     -0.581179
     45 H17         6.0390   -0.5460   -2.1520 hn        1 MOL      0.400261
     46 H18         7.3200    0.8620   -4.2240 h1        1 MOL      0.122015
     47 H19         7.8050    0.7530   -2.4960 h1        1 MOL      0.122015
     48 N5          5.2840    2.8740   -3.0370 n         1 MOL     -0.503155
     49 C16         4.9900    4.2670   -2.6890 c3        1 MOL      0.280746
     50 C17         4.7460    4.3540   -1.1680 c         1 MOL      0.596087
     51 O10         4.4680    3.3780   -0.5490 o         1 MOL     -0.492366
     52 C18         3.8260    4.7490   -3.4580 c3        1 MOL     -0.336058
     53 C19         4.0140    4.6930   -4.9410 c         1 MOL      0.795306
     54 N6          3.2770    3.8380   -5.6480 n         1 MOL     -0.911218
     55 O11         4.8650    5.4360   -5.4320 o         1 MOL     -0.594230
     56 H20         4.6010    2.2530   -3.4600 hn        1 MOL      0.238154
     57 H21         5.8280    4.9220   -2.9500 h1        1 MOL      0.009817
     58 H22         3.6150    5.7900   -3.2430 hc        1 MOL      0.077760
     59 H23         2.9650    4.1250   -3.2300 hc        1 MOL      0.077760
     60 H24         2.5160    3.3720   -5.1680 hn        1 MOL      0.406258
     61 H25         3.5700    3.5240   -6.5560 hn        1 MOL      0.406258
     62 N7          4.8270    5.5790   -0.5560 n         1 MOL     -0.621853
     63 C20         4.3910    5.9210    0.7880 c3        1 MOL      0.108646
     64 C21         2.9330    6.3880    0.9820 c         1 MOL      0.557110
     65 O12         2.1300    6.6020    0.0830 o         1 MOL     -0.507455
     66 H26         4.9990    6.3940   -1.1200 hn        1 MOL      0.312680
     67 H27         5.1210    6.6880    1.0280 h1        1 MOL      0.050775
     68 H28         4.6240    5.1200    1.4860 h1        1 MOL      0.050775
     69 N8          2.6310    6.5350    2.2310 n         1 MOL     -0.418294
     70 C22         1.4470    7.3120    2.7060 c3        1 MOL     -0.362359
     71 C23         0.1340    6.5820    2.6870 c         1 MOL      0.613192
     72 O13        -0.9150    7.2140    2.7490 o         1 MOL     -0.579072
     73 C24         1.6260    7.9830    4.1100 c3        1 MOL      0.531823
     74 C25         2.0060    7.0260    5.1910 c3        1 MOL     -0.316730
     75 O14         2.6470    8.9120    3.9090 oh        1 MOL     -0.679453
     76 H29         3.4250    6.5010    2.8500 hn        1 MOL      0.214608
     77 H30         1.3190    8.1340    2.0010 h1        1 MOL      0.177849
     78 H31         0.7480    8.5690    4.3790 h1        1 MOL      0.037916
     79 H32         3.5020    8.4930    3.7620 ho        1 MOL      0.402296
     80 H33         2.2290    6.0090    4.8960 hc        1 MOL      0.073831
     81 H34         2.9390    7.4050    5.6150 hc        1 MOL      0.073831
     82 H35         1.2280    7.0590    5.9580 hc        1 MOL      0.073831
     83 N9          0.2640    5.2640    2.5480 n         1 MOL     -0.256431
     84 C26        -0.8910    4.2990    2.6250 c3        1 MOL     -0.077551
     85 C27        -0.7820    3.1380    1.6210 c         1 MOL      0.512619
     86 O15         0.2080    3.0810    0.8350 o         1 MOL     -0.470535
     87 C28        -1.2210    3.7530    4.0950 c3        1 MOL     -0.105313
     88 C29        -0.1700    2.7790    4.7540 c3        1 MOL      0.077653
     89 C30        -1.5380    4.8310    5.1000 c3        1 MOL     -0.281523
     90 C31        -0.7250    1.9180    5.8790 c3        1 MOL     -0.271248
     91 H36         1.1560    4.8290    2.3550 hn        1 MOL      0.216596
     92 H37        -1.7520    4.8930    2.3120 h1        1 MOL      0.113006
     93 H38        -2.1680    3.2400    3.9490 hc        1 MOL      0.112513
     94 H39         0.6760    3.2940    5.2020 hc        1 MOL      0.050130
     95 H40         0.2630    2.1020    4.0290 hc        1 MOL      0.050130
     96 H41        -2.4340    5.3980    4.8200 hc        1 MOL      0.077658
     97 H42        -1.9590    4.3100    5.9630 hc        1 MOL      0.077658
     98 H43        -0.7480    5.5190    5.4020 hc        1 MOL      0.077658
     99 H44         0.1290    1.2600    6.0560 hc        1 MOL      0.065775
    100 H45        -1.0300    2.4460    6.7690 hc        1 MOL      0.065775
    101 H46        -1.5850    1.3240    5.5710 hc        1 MOL      0.065775
    102 N10        -1.8320    2.2910    1.6430 n         1 MOL     -0.694985
    103 C32        -1.9200    1.1640    0.6940 c3        1 MOL      0.500024
    104 C33        -3.2740    0.9180    0.0120 c         1 MOL      0.478569
    105 O16        -3.5330   -0.2380   -0.1700 o         1 MOL     -0.411822
    106 C34        -1.3790   -0.1060    1.4520 c3        1 MOL     -0.164080
    107 C35        -0.9990   -1.3190    0.6250 c         1 MOL      0.548556
    108 O17        -0.7110   -2.4220    1.1560 o         1 MOL     -0.649235
    109 O18        -0.7680   -1.1650   -0.6520 o         1 MOL     -0.649235
    110 H47        -2.4820    2.4460    2.4010 hn        1 MOL      0.294129
    111 H48        -1.3380    1.4130   -0.2000 h1        1 MOL      0.004921
    112 H49        -2.0910   -0.4900    2.1800 hc        1 MOL      0.027528
    113 H50        -0.5180    0.2310    2.0310 hc        1 MOL      0.027528
    114 N11        -4.1330    1.9400   -0.2600 n         1 MOL     -0.609148
    115 C36        -5.3030    1.7260   -1.1760 c3        1 MOL      0.294913
    116 C37        -6.1690    0.5350   -0.6240 c         1 MOL      0.137736
    117 O19        -6.4170    0.5330    0.5740 o         1 MOL     -0.454585
    118 C38        -6.1950    3.0110   -1.3030 c3        1 MOL     -0.257661
    119 C39        -7.2300    2.7900   -2.4100 ca        1 MOL      0.080377
    120 C40        -6.9550    3.1560   -3.7740 ca        1 MOL     -0.189942
    121 C41        -8.5370    2.1870   -2.1280 ca        1 MOL     -0.189942
    122 C42        -7.9170    2.8910   -4.8230 ca        1 MOL     -0.074221
    123 C43        -9.4390    1.8780   -3.1690 ca        1 MOL     -0.074221
    124 C44        -9.1360    2.2470   -4.5690 ca        1 MOL     -0.188751
    125 H51        -3.7980    2.8760   -0.0740 hn        1 MOL      0.307300
    126 H52        -4.9900    1.4580   -2.1840 h1        1 MOL      0.027715
    127 H53        -5.5650    3.8750   -1.5170 hc        1 MOL      0.112994
    128 H54        -6.7160    3.2590   -0.3790 hc        1 MOL      0.112994
    129 H55        -5.9430    3.4330   -4.0200 ha        1 MOL      0.128894
    130 H56        -8.7700    1.9680   -1.0920 ha        1 MOL      0.128894
    131 H57        -7.6940    3.2050   -5.8360 ha        1 MOL      0.108416
    132 H58       -10.3570    1.3380   -2.9720 ha        1 MOL      0.108416
    133 H59        -9.7790    1.8920   -5.3610 ha        1 MOL      0.134333
    134 N12        -6.7400   -0.3570   -1.4950 n         1 MOL      0.215030
    135 C45        -7.7000   -1.3100   -1.0670 c3        1 MOL      0.032574
    136 C46        -7.1930   -2.2870    0.0540 c         1 MOL      0.344827
    137 O20        -7.9980   -2.7690    0.8040 o         1 MOL     -0.532179
    138 C47        -8.0890   -2.0660   -2.3350 c3        1 MOL     -0.088771
    139 C48        -6.9020   -1.9630   -3.2950 c3        1 MOL     -0.077203
    140 C49        -6.4030   -0.5560   -2.8800 c3        1 MOL     -0.164975
    141 H60        -8.5350   -0.7000   -0.7220 h1        1 MOL      0.034376
    142 H61        -8.3760   -3.1190   -2.2510 hc        1 MOL      0.036804
    143 H62        -8.9580   -1.5360   -2.7170 hc        1 MOL      0.036804
    144 H63        -6.1730   -2.7510   -3.1070 hc        1 MOL      0.065480
    145 H64        -7.0570   -2.0220   -4.3680 hc        1 MOL      0.065480
    146 H65        -5.3180   -0.4330   -2.9580 h1        1 MOL      0.062030
    147 H66        -6.7810    0.3340   -3.3930 h1        1 MOL      0.062030
    148 N13        -5.8720   -2.4460    0.1620 n         1 MOL     -0.188278
    149 C50        -5.2510   -3.4110    1.1290 c3        1 MOL     -0.081624
    150 C51        -5.3470   -3.0070    2.5670 c         1 MOL      0.435866
    151 O21        -5.1380   -3.8080    3.4670 o         1 MOL     -0.539223
    152 C52        -3.8510   -3.6930    0.7190 c3        1 MOL      0.227366
    153 C53        -3.7890   -4.6330   -0.4140 c3        1 MOL     -0.260022
    154 C54        -2.3380   -4.7770   -0.7710 c         1 MOL      0.880195
    155 O22        -1.8110   -4.1710   -1.7030 o         1 MOL     -0.799153
    156 O23        -1.6420   -5.6220   -0.1720 o         1 MOL     -0.799153
    157 H67        -5.2480   -1.9700   -0.4740 hn        1 MOL      0.178194
    158 H68        -5.9320   -4.2540    1.0680 h1        1 MOL      0.105009
    159 H69        -3.3860   -4.1950    1.5620 hc        1 MOL     -0.056941
    160 H70        -3.3420   -2.7400    0.5780 hc        1 MOL     -0.056941
    161 H71        -4.2920   -4.1300   -1.2400 hc        1 MOL      0.032346
    162 H72        -4.1910   -5.6470   -0.3360 hc        1 MOL      0.032346
    163 N14        -5.6370   -1.7350    2.8670 n         1 MOL     -0.148982
    164 C55        -5.4480   -1.2210    4.2640 c3        1 MOL     -0.231862
    165 H73        -5.8690   -1.9330    4.9730 h1        1 MOL      0.095366
    166 H74        -4.3840   -1.0950    4.4650 h1        1 MOL      0.095366
    167 H75        -5.9550   -0.2620    4.3710 h1        1 MOL      0.095366
    168 H76        -5.7940   -1.1690    2.0530 hn        1 MOL      0.165292
    169 Ca1         0.5750   -3.9570   -0.5180 Ca        1 MOL      1.722124
    170 O24         2.0480   -1.9970    0.5030 oh        1 MOL     -0.860122
    171 H77         2.9170   -1.8660    0.1120 ho        1 MOL      0.415883
    172 H78         1.9480   -1.2590    1.1010 ho        1 MOL      0.415883
    173 O25         0.8670   -6.3450   -1.8780 oh        1 MOL     -0.860122
    174 H79         0.7310   -7.1360   -1.3700 ho        1 MOL      0.415883
    175 H80         0.9180   -6.6460   -2.7850 ho        1 MOL      0.415883
    176 O26         0.1630   -4.5640    2.2740 oh        1 MOL     -0.860122
    177 H81        -0.3160   -5.0560    2.9410 ho        1 MOL      0.415883
    178 H82        -0.3370   -3.7480    2.1700 ho        1 MOL      0.415883
@<TRIPOS>BOND
     1    1    2 1   
     2    1    4 1   
     3    1    5 1   
     4    1    6 1   
     5    2    3 2   
     6    2    7 1   
     7    7    8 1   
     8    7   15 1   
     9    8    9 1   
    10    8   11 1   
    11    8   16 1   
    12    9   10 2   
    13    9   19 1   
    14   11   12 1   
    15   11   17 1   
    16   11   18 1   
    17   12   13 1   
    18   12   14 1   
    19   19   20 1   
    20   19   24 1   
    21   20   21 1   
    22   20   23 1   
    23   20   25 1   
    24   21   22 2   
    25   21   29 1   
    26   23   26 1   
    27   23   27 1   
    28   23   28 1   
    29   29   30 1   
    30   29   37 1   
    31   30   31 1   
    32   30   33 1   
    33   30   38 1   
    34   31   32 2   
    35   31   41 1   
    36   33   34 1   
    37   33   39 1   
    38   33   40 1   
    39   34   35 1   
    40   34   36 1   
    41   41   42 1   
    42   41   45 1   
    43   42   43 1   
    44   42   46 1   
    45   42   47 1   
    46   43   44 2   
    47   43   48 1   
    48   48   49 1   
    49   48   56 1   
    50   49   50 1   
    51   49   52 1   
    52   49   57 1   
    53   50   51 2   
    54   50   62 1   
    55   52   53 1   
    56   52   58 1   
    57   52   59 1   
    58   53   54 1   
    59   53   55 2   
    60   54   60 1   
    61   54   61 1   
    62   62   63 1   
    63   62   66 1   
    64   63   64 1   
    65   63   67 1   
    66   63   68 1   
    67   64   65 2   
    68   64   69 1   
    69   69   70 1   
    70   69   76 1   
    71   70   71 1   
    72   70   73 1   
    73   70   77 1   
    74   71   72 2   
    75   71   83 1   
    76   73   74 1   
    77   73   75 1   
    78   73   78 1   
    79   74   80 1   
    80   74   81 1   
    81   74   82 1   
    82   75   79 1   
    83   83   84 1   
    84   83   91 1   
    85   84   85 1   
    86   84   87 1   
    87   84   92 1   
    88   85   86 2   
    89   85  102 1   
    90   87   88 1   
    91   87   89 1   
    92   87   93 1   
    93   88   90 1   
    94   88   94 1   
    95   88   95 1   
    96   89   96 1   
    97   89   97 1   
    98   89   98 1   
    99   90   99 1   
   100   90  100 1   
   101   90  101 1   
   102  102  103 1   
   103  102  110 1   
   104  103  104 1   
   105  103  106 1   
   106  103  111 1   
   107  104  105 2   
   108  104  114 1   
   109  106  107 1   
   110  106  112 1   
   111  106  113 1   
   112  107  108 1   
   113  107  109 1   
   114  114  115 1   
   115  114  125 1   
   116  115  116 1   
   117  115  118 1   
   118  115  126 1   
   119  116  117 2   
   120  116  134 1   
   121  118  119 1   
   122  118  127 1   
   123  118  128 1   
   124  119  120 ar  
   125  119  121 ar  
   126  120  122 ar  
   127  120  129 1   
   128  121  123 ar  
   129  121  130 1   
   130  122  124 ar  
   131  122  131 1   
   132  123  124 ar  
   133  123  132 1   
   134  124  133 1   
   135  134  135 1   
   136  134  140 1   
   137  135  136 1   
   138  135  138 1   
   139  135  141 1   
   140  136  137 2   
   141  136  148 1   
   142  138  139 1   
   143  138  142 1   
   144  138  143 1   
   145  139  140 1   
   146  139  144 1   
   147  139  145 1   
   148  140  146 1   
   149  140  147 1   
   150  148  149 1   
   151  148  157 1   
   152  149  150 1   
   153  149  152 1   
   154  149  158 1   
   155  150  151 2   
   156  150  163 1   
   157  152  153 1   
   158  152  159 1   
   159  152  160 1   
   160  153  154 1   
   161  153  161 1   
   162  153  162 1   
   163  154  155 1   
   164  154  156 1   
   165  163  164 1   
   166  163  168 1   
   167  164  165 1   
   168  164  166 1   
   169  164  167 1   
   170  170  171 1   
   171  170  172 1   
   172  173  174 1   
   173  173  175 1   
   174  176  177 1   
   175  176  178 1   
@<TRIPOS>SUBSTRUCTURE
     1 MOL         1 TEMP              0 ****  ****    0 ROOT
