@<TRIPOS>MOLECULE
MOL
  178   175     1     0     0
SMALL
resp


@<TRIPOS>ATOM
      1 C1         10.2590   -6.5060    1.9470 c3        1 MOL     -0.272672
      2 C2          9.2520   -5.5380    1.4100 c         1 MOL      0.616382
      3 O1          8.2950   -6.0060    0.8400 o         1 MOL     -0.578328
      4 H1         10.5870   -7.1690    1.1460 hc        1 MOL      0.066935
      5 H2         11.1160   -5.9590    2.3390 hc        1 MOL      0.066935
      6 H3          9.8080   -7.0970    2.7440 hc        1 MOL      0.066935
      7 N1          9.3930   -4.2360    1.4560 n         1 MOL     -0.343076
      8 C3         10.4700   -3.3370    1.9760 c3        1 MOL      0.182849
      9 C4         11.0880   -2.4180    0.8990 c         1 MOL      0.351142
     10 O2         10.4360   -2.1380   -0.0980 o         1 MOL     -0.482302
     11 C5         10.0050   -2.5280    3.1570 c3        1 MOL     -0.300615
     12 C6          8.7060   -1.7740    2.9700 c         1 MOL      0.705229
     13 O3          8.1280   -1.3450    3.9500 o         1 MOL     -0.648978
     14 O4          8.2490   -1.5980    1.8260 o         1 MOL     -0.648978
     15 H4          8.6750   -3.8610    0.8480 hn        1 MOL      0.226060
     16 H5         11.2570   -3.9580    2.3980 h1        1 MOL      0.020437
     17 H6         10.7760   -1.8460    3.5040 hc        1 MOL      0.070271
     18 H7          9.6980   -3.1880    3.9660 hc        1 MOL      0.070271
     19 N2         12.3520   -1.9260    1.0530 n         1 MOL     -0.461717
     20 C7         13.3360   -1.1740    0.2030 c3        1 MOL      0.260708
     21 C8         12.8860    0.1830   -0.4830 c         1 MOL      0.487905
     22 O5         13.7430    0.9850   -0.8760 o         1 MOL     -0.548292
     23 C9         14.0930   -2.2210   -0.7030 c3        1 MOL     -0.541866
     24 H8         12.7790   -2.2230    1.9150 hn        1 MOL      0.286001
     25 H9         13.9570   -0.7130    0.9750 h1        1 MOL      0.024028
     26 H10        14.6890   -1.6540   -1.4260 hc        1 MOL      0.157249
     27 H11        14.7380   -2.7980   -0.0330 hc        1 MOL      0.157249
     28 H12        13.3580   -2.7920   -1.2690 hc        1 MOL      0.157249
     29 N3         11.5820    0.4250   -0.4720 n         1 MOL     -0.251764
     30 C10        11.0020    1.7980   -0.6550 c3        1 MOL      0.012509
     31 C11         9.5650    1.8260    0.0150 c         1 MOL      0.412376
     32 O6          9.0810    0.8520    0.6020 o         1 MOL     -0.480031
     33 C12        10.8780    2.0970   -2.1970 c3        1 MOL     -0.102549
     34 C13        10.1780    0.9450   -3.0430 c         1 MOL      0.621976
     35 O7         10.4810    0.6620   -4.2160 o         1 MOL     -0.649143
     36 O8          9.1980    0.3640   -2.5040 o         1 MOL     -0.649143
     37 H13        10.9600   -0.1970    0.0250 hn        1 MOL      0.137849
     38 H14        11.5420    2.6000   -0.1640 h1        1 MOL      0.053448
     39 H15        11.8530    2.3360   -2.6110 hc        1 MOL      0.026112
     40 H16        10.3240    3.0290   -2.2700 hc        1 MOL      0.026112
     41 N4          8.9080    2.9540   -0.0880 n         1 MOL     -0.290860
     42 C14         7.4640    3.2290    0.2210 c3        1 MOL     -0.353169
     43 C15         6.4090    2.2420   -0.3170 c         1 MOL      0.732127
     44 O9          6.6680    1.2350   -1.0020 o         1 MOL     -0.631822
     45 H17         9.3700    3.7090   -0.5550 hn        1 MOL      0.276890
     46 H18         7.1620    4.1630   -0.2670 h1        1 MOL      0.158158
     47 H19         7.4020    3.2630    1.3130 h1        1 MOL      0.158158
     48 N5          5.2260    2.5240    0.1870 n         1 MOL     -0.436440
     49 C16         3.9710    1.7590    0.1370 c3        1 MOL     -0.096440
     50 C17         2.7030    2.6100    0.3060 c         1 MOL      0.639962
     51 O10         2.7350    3.5480    1.0960 o         1 MOL     -0.525319
     52 C18         3.9320    0.7760    1.2710 c3        1 MOL     -0.173722
     53 C19         5.1710   -0.1480    1.4350 c         1 MOL      0.486707
     54 N6          5.8960   -0.1010    2.5570 n         1 MOL     -0.602522
     55 O11         5.5740   -0.8700    0.5680 o         1 MOL     -0.468867
     56 H20         5.1980    3.4130    0.6740 hn        1 MOL      0.259628
     57 H21         3.8520    1.2370   -0.8110 h1        1 MOL      0.129274
     58 H22         3.0270    0.1790    1.2330 hc        1 MOL      0.083444
     59 H23         3.7730    1.3590    2.1820 hc        1 MOL      0.083444
     60 H24         5.4830    0.3420    3.3670 hn        1 MOL      0.303668
     61 H25         6.7640   -0.5990    2.6820 hn        1 MOL      0.303668
     62 N7          1.6030    2.1850   -0.3720 n         1 MOL     -0.611019
     63 C20         0.2920    2.8620   -0.1880 c3        1 MOL      0.098128
     64 C21         0.2920    4.1670   -0.9480 c         1 MOL      0.497966
     65 O12         0.9910    4.2960   -2.0100 o         1 MOL     -0.571181
     66 H26         1.7080    1.4730   -1.0820 hn        1 MOL      0.364650
     67 H27         0.1140    2.9740    0.8780 h1        1 MOL      0.107248
     68 H28        -0.5330    2.2400   -0.5650 h1        1 MOL      0.107248
     69 N8         -0.4940    5.1620   -0.6590 n         1 MOL     -0.315696
     70 C22        -1.0400    5.3170    0.6780 c3        1 MOL     -0.141890
     71 C23        -2.4030    4.6780    1.0760 c         1 MOL      0.434099
     72 O13        -2.9220    4.7270    2.2220 o         1 MOL     -0.546968
     73 C24        -1.0640    6.8370    1.0700 c3        1 MOL      0.467686
     74 C25         0.2390    7.5760    1.3160 c3        1 MOL     -0.374864
     75 O14        -1.8940    7.6340    0.1640 oh        1 MOL     -0.609778
     76 H29        -0.4380    5.9450   -1.2910 hn        1 MOL      0.301054
     77 H30        -0.3170    5.0160    1.4410 h1        1 MOL      0.088770
     78 H31        -1.4630    6.8840    2.0820 h1        1 MOL     -0.018367
     79 H32        -2.0330    8.4620    0.6360 ho        1 MOL      0.370696
     80 H33         0.7730    7.1470    2.1690 hc        1 MOL      0.085137
     81 H34         0.7420    7.4580    0.3560 hc        1 MOL      0.085137
     82 H35         0.1540    8.6420    1.5220 hc        1 MOL      0.085137
     83 N9         -3.1190    4.2120    0.0590 n         1 MOL     -0.346531
     84 C26        -4.4680    3.7690    0.0480 c3        1 MOL      0.164055
     85 C27        -4.5170    2.2810   -0.4200 c         1 MOL      0.318858
     86 O15        -3.6590    1.8700   -1.2460 o         1 MOL     -0.492455
     87 C28        -5.3520    4.7170   -0.7260 c3        1 MOL      0.124900
     88 C29        -4.7180    5.3090   -2.0090 c3        1 MOL      0.173462
     89 C30        -5.8200    5.8050    0.2920 c3        1 MOL     -0.307675
     90 C31        -5.7540    5.8300   -3.0170 c3        1 MOL     -0.185754
     91 H36        -2.5820    4.3530   -0.7890 hn        1 MOL      0.118839
     92 H37        -4.8470    3.6300    1.0580 h1        1 MOL      0.145242
     93 H38        -6.2150    4.1050   -0.9970 hc        1 MOL      0.013084
     94 H39        -4.1960    4.5740   -2.6300 hc        1 MOL     -0.014766
     95 H40        -4.0660    6.1290   -1.7210 hc        1 MOL     -0.014766
     96 H41        -6.6090    6.4660   -0.0480 hc        1 MOL      0.065246
     97 H42        -6.1830    5.2690    1.1720 hc        1 MOL      0.065246
     98 H43        -4.9710    6.4280    0.6070 hc        1 MOL      0.065246
     99 H44        -5.2760    6.3280   -3.8600 hc        1 MOL      0.026659
    100 H45        -6.3940    4.9780   -3.2560 hc        1 MOL      0.026659
    101 H46        -6.3730    6.6270   -2.5930 hc        1 MOL      0.026659
    102 N10        -5.4670    1.4390    0.0180 n         1 MOL     -0.342663
    103 C32        -6.6560    1.7360    0.7500 c3        1 MOL     -0.038520
    104 C33        -7.6910    0.5870    0.3940 c         1 MOL      0.618413
    105 O16        -7.2810   -0.5820    0.2390 o         1 MOL     -0.507989
    106 C34        -6.4030    1.6600    2.2830 c3        1 MOL     -0.100529
    107 C35        -7.5320    2.1390    3.1790 c         1 MOL      0.689595
    108 O17        -8.5920    2.6620    2.7530 o         1 MOL     -0.710270
    109 O18        -7.2420    2.0830    4.4240 o         1 MOL     -0.710270
    110 H47        -5.3520    0.4710   -0.2410 hn        1 MOL      0.304104
    111 H48        -6.9920    2.7350    0.4880 h1        1 MOL      0.028864
    112 H49        -5.5710    2.3140    2.5250 hc        1 MOL      0.023896
    113 H50        -6.0380    0.6550    2.5440 hc        1 MOL      0.023896
    114 N11        -8.9390    0.9230    0.4230 n         1 MOL     -0.597903
    115 C36       -10.0210   -0.0740    0.2490 c3        1 MOL      0.356029
    116 C37       -10.2120   -0.5790   -1.1930 c         1 MOL      0.309606
    117 O19       -10.0710    0.2090   -2.1310 o         1 MOL     -0.481168
    118 C38       -11.2620    0.6300    0.7890 c3        1 MOL     -0.190442
    119 C39       -12.4230   -0.2710    0.8760 ca        1 MOL      0.064047
    120 C40       -13.3910   -0.3850   -0.1850 ca        1 MOL     -0.154036
    121 C41       -12.7820   -0.9090    2.0930 ca        1 MOL     -0.154036
    122 C42       -14.4870   -1.2980   -0.0910 ca        1 MOL     -0.131946
    123 C43       -13.9410   -1.7570    2.1660 ca        1 MOL     -0.131946
    124 C44       -14.7810   -2.0120    1.1010 ca        1 MOL     -0.096457
    125 H51        -9.1160    1.7850    0.9260 hn        1 MOL      0.297444
    126 H52        -9.8520   -0.9620    0.8680 h1        1 MOL      0.015689
    127 H53       -11.3870    1.4690    0.1020 hc        1 MOL      0.086631
    128 H54       -11.0230    1.1230    1.7310 hc        1 MOL      0.086631
    129 H55       -13.2690    0.2480   -1.0420 ha        1 MOL      0.127423
    130 H56       -12.1920   -0.6950    2.9710 ha        1 MOL      0.127423
    131 H57       -15.1630   -1.4020   -0.9290 ha        1 MOL      0.097524
    132 H58       -14.2040   -2.3370    3.0400 ha        1 MOL      0.097524
    133 H59       -15.6370   -2.6600    1.0730 ha        1 MOL      0.099379
    134 N12       -10.4560   -1.9180   -1.4440 n         1 MOL     -0.152961
    135 C45       -10.5590   -2.9860   -0.4430 c3        1 MOL      0.434750
    136 C46        -9.2640   -3.5660    0.1130 c         1 MOL      0.081719
    137 O20        -9.0590   -3.7660    1.3390 o         1 MOL     -0.466058
    138 C47       -11.3470   -4.1550   -1.0520 c3        1 MOL     -0.129419
    139 C48       -11.9360   -3.5840   -2.2800 c3        1 MOL     -0.077953
    140 C49       -10.8440   -2.5240   -2.7120 c3        1 MOL     -0.099124
    141 H60       -11.1030   -2.6650    0.4480 h1        1 MOL     -0.022815
    142 H61       -10.6480   -4.9440   -1.3400 hc        1 MOL      0.046467
    143 H62       -12.1680   -4.4400   -0.4040 hc        1 MOL      0.046467
    144 H63       -12.0540   -4.3090   -3.0830 hc        1 MOL      0.026202
    145 H64       -12.7870   -2.9270   -2.1140 hc        1 MOL      0.026202
    146 H65       -10.0360   -3.0320   -3.2350 h1        1 MOL      0.075274
    147 H66       -11.2260   -1.7330   -3.3620 h1        1 MOL      0.075274
    148 N13        -8.2710   -3.8490   -0.7830 n         1 MOL     -0.255941
    149 C50        -6.9970   -4.4970   -0.4740 c3        1 MOL      0.197439
    150 C51        -7.1420   -6.0970   -0.3410 c         1 MOL      0.460356
    151 O21        -7.2020   -6.8080   -1.3150 o         1 MOL     -0.557283
    152 C52        -5.8880   -4.2790   -1.5200 c3        1 MOL     -0.139387
    153 C53        -5.5560   -2.7770   -1.6010 c3        1 MOL      0.000087
    154 C54        -4.3460   -2.4290   -2.5210 c         1 MOL      0.706234
    155 O22        -3.2700   -2.2820   -1.9570 o         1 MOL     -0.748495
    156 O23        -4.5580   -2.2120   -3.7620 o         1 MOL     -0.748495
    157 H67        -8.5000   -3.7160   -1.7590 hn        1 MOL      0.253159
    158 H68        -6.6440   -4.0970    0.4780 h1        1 MOL      0.108454
    159 H69        -6.2230   -4.6120   -2.5090 hc        1 MOL      0.022871
    160 H70        -4.9580   -4.8140   -1.3380 hc        1 MOL      0.022871
    161 H71        -5.3440   -2.4730   -0.5790 hc        1 MOL     -0.045276
    162 H72        -6.3430   -2.2160   -2.1070 hc        1 MOL     -0.045276
    163 N14        -7.3640   -6.7250    0.8660 n         1 MOL     -0.437418
    164 C55        -7.0860   -6.0890    2.2120 c3        1 MOL     -0.025137
    165 H73        -7.9180   -5.4390    2.4850 h1        1 MOL      0.046569
    166 H74        -6.9710   -6.8670    2.9660 h1        1 MOL      0.046569
    167 H75        -6.1700   -5.5000    2.1530 h1        1 MOL      0.046569
    168 H76        -7.3240   -7.7270    0.8140 hn        1 MOL      0.274477
    169 Ca1         7.9650   -1.1270   -0.7230 Ca        1 MOL      1.703876
    170 O24         8.9160   -2.8980   -2.6540 oh        1 MOL     -0.862204
    171 H77         8.5920   -3.7660   -2.8640 ho        1 MOL      0.418948
    172 H78         9.4390   -2.6430   -3.4160 ho        1 MOL      0.418948
    173 O25         7.0350   -3.8180   -0.5780 oh        1 MOL     -0.862204
    174 H79         7.5640   -4.5060   -0.9860 ho        1 MOL      0.418948
    175 H80         6.1520   -3.9380   -0.9500 ho        1 MOL      0.418948
    176 O26         5.9670   -1.6780   -2.3360 oh        1 MOL     -0.862204
    177 H81         5.9750   -2.3240   -3.0360 ho        1 MOL      0.418948
    178 H82         5.0540   -1.4260   -2.2450 ho        1 MOL      0.418948
@<TRIPOS>BOND
     1    1    2 1   
     2    1    4 1   
     3    1    5 1   
     4    1    6 1   
     5    2    3 2   
     6    2    7 1   
     7    7    8 1   
     8    7   15 1   
     9    8    9 1   
    10    8   11 1   
    11    8   16 1   
    12    9   10 2   
    13    9   19 1   
    14   11   12 1   
    15   11   17 1   
    16   11   18 1   
    17   12   13 1   
    18   12   14 1   
    19   19   20 1   
    20   19   24 1   
    21   20   21 1   
    22   20   23 1   
    23   20   25 1   
    24   21   22 2   
    25   21   29 1   
    26   23   26 1   
    27   23   27 1   
    28   23   28 1   
    29   29   30 1   
    30   29   37 1   
    31   30   31 1   
    32   30   33 1   
    33   30   38 1   
    34   31   32 2   
    35   31   41 1   
    36   33   34 1   
    37   33   39 1   
    38   33   40 1   
    39   34   35 1   
    40   34   36 1   
    41   41   42 1   
    42   41   45 1   
    43   42   43 1   
    44   42   46 1   
    45   42   47 1   
    46   43   44 2   
    47   43   48 1   
    48   48   49 1   
    49   48   56 1   
    50   49   50 1   
    51   49   52 1   
    52   49   57 1   
    53   50   51 2   
    54   50   62 1   
    55   52   53 1   
    56   52   58 1   
    57   52   59 1   
    58   53   54 1   
    59   53   55 2   
    60   54   60 1   
    61   54   61 1   
    62   62   63 1   
    63   62   66 1   
    64   63   64 1   
    65   63   67 1   
    66   63   68 1   
    67   64   65 2   
    68   64   69 1   
    69   69   70 1   
    70   69   76 1   
    71   70   71 1   
    72   70   73 1   
    73   70   77 1   
    74   71   72 2   
    75   71   83 1   
    76   73   74 1   
    77   73   75 1   
    78   73   78 1   
    79   74   80 1   
    80   74   81 1   
    81   74   82 1   
    82   75   79 1   
    83   83   84 1   
    84   83   91 1   
    85   84   85 1   
    86   84   87 1   
    87   84   92 1   
    88   85   86 2   
    89   85  102 1   
    90   87   88 1   
    91   87   89 1   
    92   87   93 1   
    93   88   90 1   
    94   88   94 1   
    95   88   95 1   
    96   89   96 1   
    97   89   97 1   
    98   89   98 1   
    99   90   99 1   
   100   90  100 1   
   101   90  101 1   
   102  102  103 1   
   103  102  110 1   
   104  103  104 1   
   105  103  106 1   
   106  103  111 1   
   107  104  105 2   
   108  104  114 1   
   109  106  107 1   
   110  106  112 1   
   111  106  113 1   
   112  107  108 1   
   113  107  109 1   
   114  114  115 1   
   115  114  125 1   
   116  115  116 1   
   117  115  118 1   
   118  115  126 1   
   119  116  117 2   
   120  116  134 1   
   121  118  119 1   
   122  118  127 1   
   123  118  128 1   
   124  119  120 ar  
   125  119  121 ar  
   126  120  122 ar  
   127  120  129 1   
   128  121  123 ar  
   129  121  130 1   
   130  122  124 ar  
   131  122  131 1   
   132  123  124 ar  
   133  123  132 1   
   134  124  133 1   
   135  134  135 1   
   136  134  140 1   
   137  135  136 1   
   138  135  138 1   
   139  135  141 1   
   140  136  137 2   
   141  136  148 1   
   142  138  139 1   
   143  138  142 1   
   144  138  143 1   
   145  139  140 1   
   146  139  144 1   
   147  139  145 1   
   148  140  146 1   
   149  140  147 1   
   150  148  149 1   
   151  148  157 1   
   152  149  150 1   
   153  149  152 1   
   154  149  158 1   
   155  150  151 2   
   156  150  163 1   
   157  152  153 1   
   158  152  159 1   
   159  152  160 1   
   160  153  154 1   
   161  153  161 1   
   162  153  162 1   
   163  154  155 1   
   164  154  156 1   
   165  163  164 1   
   166  163  168 1   
   167  164  165 1   
   168  164  166 1   
   169  164  167 1   
   170  170  171 1   
   171  170  172 1   
   172  173  174 1   
   173  173  175 1   
   174  176  177 1   
   175  176  178 1   
@<TRIPOS>SUBSTRUCTURE
     1 MOL         1 TEMP              0 ****  ****    0 ROOT
