@<TRIPOS>MOLECULE
MOL
  192   187     1     0     0
SMALL
resp


@<TRIPOS>ATOM
      1 C1         -6.9130   -1.8200    5.0690 c3        1 MOL     -0.296347
      2 C2         -6.0970   -1.3490    3.8630 c         1 MOL      0.882453
      3 O1         -5.4930   -2.2100    3.2360 o         1 MOL     -0.621029
      4 H1         -7.7410   -1.1310    5.2390 hc        1 MOL      0.072609
      5 H2         -7.3070   -2.8180    4.8750 hc        1 MOL      0.072609
      6 H3         -6.2750   -1.8460    5.9510 hc        1 MOL      0.072609
      7 N1         -6.0750   -0.0450    3.4460 n         1 MOL     -0.863033
      8 C3         -5.6610    0.3750    2.0930 c3        1 MOL      0.659126
      9 C4         -4.2280    0.1020    1.6350 c         1 MOL     -0.064907
     10 O2         -3.7670    0.4900    0.5270 o         1 MOL     -0.197855
     11 C5         -5.9040    1.9070    1.9330 c3        1 MOL     -0.222665
     12 C6         -7.3120    2.3450    2.2060 c         1 MOL      0.683101
     13 O3         -7.9370    1.8550    3.1660 o         1 MOL     -0.674949
     14 O4         -7.8240    3.1730    1.4620 o         1 MOL     -0.674949
     15 H4         -6.6930    0.6440    3.8580 hn        1 MOL      0.341042
     16 H5         -6.2250   -0.1580    1.3310 h1        1 MOL     -0.012143
     17 H6         -5.5990    2.2820    0.9530 hc        1 MOL     -0.004544
     18 H7         -5.3340    2.5310    2.6290 hc        1 MOL     -0.004544
     19 N2         -3.4270   -0.4090    2.5650 n         1 MOL     -0.277003
     20 C7         -1.9520   -0.3460    2.4430 c3        1 MOL      0.118755
     21 C8         -1.3270   -1.7620    2.3660 c         1 MOL      0.386774
     22 O5         -1.7780   -2.7120    3.0750 o         1 MOL     -0.495378
     23 C9         -1.5490    0.3060    3.8580 c3        1 MOL     -0.516337
     24 C10        -1.8220    1.7990    3.9530 c3        1 MOL      0.038538
     25 C11        -1.3680    2.4000    5.2830 c3        1 MOL     -0.041790
     26 C12        -1.7990    3.8150    5.1960 c3        1 MOL      0.025493
     27 N3         -1.1010    4.6130    4.0770 n4        1 MOL     -0.345935
     28 H8         -3.8470   -0.7490    3.4180 hn        1 MOL      0.259845
     29 H9         -1.7290    0.3580    1.6410 h1        1 MOL      0.200800
     30 H10        -0.4820    0.0860    3.9210 hc        1 MOL      0.171028
     31 H11        -1.9830   -0.1600    4.7420 hc        1 MOL      0.171028
     32 H12        -2.8770    2.0470    3.8100 hc        1 MOL      0.090053
     33 H13        -1.2310    2.2320    3.1480 hc        1 MOL      0.090053
     34 H14        -0.2840    2.3250    5.3800 hc        1 MOL      0.064856
     35 H15        -1.8450    1.9200    6.1450 hc        1 MOL      0.064856
     36 H16        -1.5250    4.2870    6.1350 hx        1 MOL      0.062955
     37 H17        -2.8590    3.9490    5.0130 hx        1 MOL      0.062955
     38 H18        -1.4590    5.5480    3.9510 hn        1 MOL      0.313052
     39 H19        -0.1200    4.8130    4.2130 hn        1 MOL      0.313052
     40 H20        -1.2060    4.0960    3.2220 hn        1 MOL      0.313052
     41 N4         -0.2840   -2.0040    1.5960 n         1 MOL     -0.119469
     42 C13         0.5600   -1.1460    0.8270 c3        1 MOL     -0.166410
     43 C14         1.1810    0.0190    1.5250 c         1 MOL      0.614260
     44 O6          0.6120    1.1070    1.7370 o         1 MOL     -0.611193
     45 C15         0.0070   -0.8220   -0.5080 c3        1 MOL     -0.854193
     46 C16        -0.0120   -1.9450   -1.4840 c         1 MOL      0.958100
     47 O7          0.6330   -2.9770   -1.2220 o         1 MOL     -0.756927
     48 O8         -0.5000   -1.7840   -2.6250 o         1 MOL     -0.756927
     49 H21        -0.0560   -2.9840    1.5820 hn        1 MOL      0.154205
     50 H22         1.3990   -1.8100    0.5860 h1        1 MOL     -0.064053
     51 H23         0.7270   -0.1000   -0.8610 hc        1 MOL      0.296186
     52 H24        -0.9680   -0.3170   -0.4650 hc        1 MOL      0.296186
     53 N5          2.3850   -0.1720    2.0860 n         1 MOL     -0.388961
     54 C17         3.2460   -1.3860    1.9900 c3        1 MOL     -0.257916
     55 C18         4.3960   -1.3890    3.0820 c         1 MOL      0.538367
     56 O9          4.6300   -0.4240    3.7880 o         1 MOL     -0.499838
     57 H25         2.7670    0.6060    2.5940 hn        1 MOL      0.290259
     58 H26         3.7740   -1.3390    1.0390 h1        1 MOL      0.222454
     59 H27         2.7080   -2.3370    2.0840 h1        1 MOL      0.222454
     60 N6          5.3490   -2.3480    3.1200 n         1 MOL     -0.531489
     61 C19         5.6500   -3.3470    2.1240 c3        1 MOL      0.384171
     62 C20         6.6070   -2.8990    1.0390 c         1 MOL      0.457588
     63 O10         7.4660   -2.0190    1.2070 o         1 MOL     -0.491263
     64 C21         6.2040   -4.5520    2.7990 c3        1 MOL     -0.245274
     65 C22         7.0490   -4.4340    4.1050 c         1 MOL      0.726525
     66 O11         7.3390   -3.3280    4.6410 o         1 MOL     -0.637813
     67 O12         7.5410   -5.4600    4.5580 o         1 MOL     -0.637813
     68 H28         6.1300   -2.0840    3.7060 hn        1 MOL      0.302998
     69 H29         4.7000   -3.5970    1.6620 h1        1 MOL     -0.132055
     70 H30         6.7710   -5.1720    2.1030 hc        1 MOL      0.018018
     71 H31         5.3370   -5.1340    3.1230 hc        1 MOL      0.018018
     72 N7          6.5030   -3.4420   -0.1930 n         1 MOL     -0.293680
     73 C23         7.2380   -3.0840   -1.4350 c3        1 MOL     -0.156613
     74 C24         6.6080   -1.9090   -2.2060 c         1 MOL      0.484418
     75 O13         7.1690   -1.5730   -3.2160 o         1 MOL     -0.556285
     76 H32         5.7920   -4.1570   -0.2560 hn        1 MOL      0.146767
     77 H33         7.2550   -3.9950   -2.0390 h1        1 MOL      0.125597
     78 H34         8.2970   -2.9310   -1.2410 h1        1 MOL      0.125597
     79 N8          5.6160   -1.3020   -1.6490 n         1 MOL     -0.111507
     80 C25         5.0840   -0.0230   -2.1360 c3        1 MOL     -0.156796
     81 C26         5.2660    1.1160   -1.0450 c         1 MOL      0.546645
     82 O14         4.9880    0.9170    0.1090 o         1 MOL     -0.442611
     83 C27         3.5540   -0.0460   -2.4500 c3        1 MOL      0.217040
     84 C28         3.4230   -1.0820   -3.5510 c3        1 MOL     -0.371250
     85 O15         3.1570    1.1830   -3.0200 oh        1 MOL     -0.550633
     86 H35         5.2440   -1.6560   -0.7750 hn        1 MOL      0.030493
     87 H36         5.4670    0.1740   -3.1390 h1        1 MOL      0.157093
     88 H37         2.8860   -0.3560   -1.6490 h1        1 MOL      0.123258
     89 H38         2.2610    1.3890   -2.7380 ho        1 MOL      0.390253
     90 H39         3.9450   -2.0250   -3.3620 hc        1 MOL      0.105650
     91 H40         2.3530   -1.3080   -3.6200 hc        1 MOL      0.105650
     92 H41         3.8540   -0.7790   -4.5050 hc        1 MOL      0.105650
     93 N9          5.8050    2.2700   -1.4780 n         1 MOL     -0.439576
     94 C29         5.8980    3.4250   -0.6190 c3        1 MOL     -0.065493
     95 C30         4.5610    4.1740   -0.4120 c         1 MOL      0.427411
     96 O16         4.5430    5.1730    0.2820 o         1 MOL     -0.525429
     97 C31         7.1330    4.2830   -1.1040 c3        1 MOL      0.284092
     98 C32         7.7380    4.8590    0.1150 c3        1 MOL      0.037712
     99 C33         6.6550    5.3530   -2.1170 c3        1 MOL     -0.286036
    100 C34         8.9930    5.7160   -0.1450 c3        1 MOL     -0.234245
    101 H42         6.1440    2.3330   -2.4200 hn        1 MOL      0.269482
    102 H43         6.2930    2.9990    0.3020 h1        1 MOL      0.081738
    103 H44         7.8640    3.6470   -1.5880 hc        1 MOL     -0.019519
    104 H45         8.1430    4.0800    0.7720 hc        1 MOL      0.016469
    105 H46         6.9510    5.4200    0.6090 hc        1 MOL      0.016469
    106 H47         6.3620    6.2600   -1.5880 hc        1 MOL      0.059476
    107 H48         7.4140    5.6540   -2.8350 hc        1 MOL      0.059476
    108 H49         5.8210    5.0080   -2.7150 hc        1 MOL      0.059476
    109 H50         9.4240    6.0140    0.8150 hc        1 MOL      0.054931
    110 H51         9.8100    5.1210   -0.5500 hc        1 MOL      0.054931
    111 H52         8.8090    6.6840   -0.6130 hc        1 MOL      0.054931
    112 N10         3.4710    3.7700   -1.0490 n         1 MOL     -0.179532
    113 C35         2.1580    4.4470   -0.7540 c3        1 MOL      0.120181
    114 C36         1.0370    3.3950   -0.8710 c         1 MOL      0.380491
    115 O17         1.2190    2.2900   -1.4610 o         1 MOL     -0.403819
    116 C37         1.7730    5.4940   -1.8290 c3        1 MOL      0.297475
    117 C38         2.7490    6.6280   -1.8580 c3        1 MOL     -0.278478
    118 O18         0.4730    6.0460   -1.5800 oh        1 MOL     -0.674160
    119 H53         3.3920    2.9180   -1.5780 hn        1 MOL      0.054919
    120 H54         2.0930    4.9360    0.2170 h1        1 MOL      0.059834
    121 H55         1.6870    5.0290   -2.8160 h1        1 MOL      0.027133
    122 H56         0.0400    6.3300   -2.3950 ho        1 MOL      0.416810
    123 H57         2.7720    7.2210   -0.9330 hc        1 MOL      0.078395
    124 H58         3.7120    6.2110   -2.1400 hc        1 MOL      0.078395
    125 H59         2.3960    7.3890   -2.5530 hc        1 MOL      0.078395
    126 N11        -0.0730    3.6600   -0.2420 n         1 MOL     -0.454251
    127 C39        -1.2860    2.8810   -0.4090 c3        1 MOL      0.156422
    128 C40        -1.7000    2.4720   -1.8260 c         1 MOL      0.293350
    129 O19        -1.4140    3.0550   -2.8780 o         1 MOL     -0.501286
    130 C41        -2.4360    3.6300    0.2060 c3        1 MOL      0.210858
    131 C42        -2.8020    4.8980   -0.4730 c3        1 MOL     -0.277603
    132 O20        -2.2090    3.9210    1.6020 oh        1 MOL     -0.794099
    133 H60        -0.1920    4.5910    0.1470 hn        1 MOL      0.317036
    134 H61        -1.2050    1.9150    0.1040 h1        1 MOL      0.136339
    135 H62        -3.2790    2.9410    0.3000 h1        1 MOL      0.121771
    136 H63        -2.8280    4.6100    1.8520 ho        1 MOL      0.445011
    137 H64        -3.6820    5.3500   -0.0140 hc        1 MOL      0.081654
    138 H65        -1.9800    5.6140   -0.4490 hc        1 MOL      0.081654
    139 H66        -3.0430    4.6600   -1.5140 hc        1 MOL      0.081654
    140 N12        -2.5600    1.4960   -1.8240 n         1 MOL     -0.079499
    141 C43        -3.2850    1.0070   -3.0460 c3        1 MOL     -0.102031
    142 C44        -3.7320   -0.4880   -2.9660 c         1 MOL      0.619688
    143 O21        -3.9450   -1.0880   -4.0050 o         1 MOL     -0.630169
    144 C45        -4.6230    1.8620   -3.2620 c3        1 MOL     -0.294663
    145 C46        -5.8360    1.3980   -2.3520 c3        1 MOL      0.110849
    146 C47        -7.1000    2.2850   -2.6520 c3        1 MOL     -0.150982
    147 C48        -6.9430    3.7340   -2.1200 c3        1 MOL      0.225766
    148 N13        -8.0940    4.5760   -2.4140 n4        1 MOL     -0.244771
    149 H67        -2.8690    1.2230   -0.8970 hn        1 MOL     -0.105304
    150 H68        -2.6990    1.0840   -3.9630 h1        1 MOL      0.156041
    151 H69        -4.9450    1.7530   -4.3000 hc        1 MOL      0.102789
    152 H70        -4.3800    2.9110   -3.0800 hc        1 MOL      0.102789
    153 H71        -5.6310    1.4050   -1.2790 hc        1 MOL      0.028363
    154 H72        -6.0630    0.3620   -2.5990 hc        1 MOL      0.028363
    155 H73        -7.8510    1.7760   -2.0630 hc        1 MOL      0.044753
    156 H74        -7.2770    2.3330   -3.7240 hc        1 MOL      0.044753
    157 H75        -6.0540    4.1460   -2.5850 hx        1 MOL     -0.010558
    158 H76        -6.8790    3.6570   -1.0320 hx        1 MOL     -0.010558
    159 H77        -8.0820    4.8050   -3.3940 hn        1 MOL      0.285462
    160 H78        -9.0090    4.1800   -2.2590 hn        1 MOL      0.285462
    161 H79        -8.0590    5.4890   -1.9800 hn        1 MOL      0.285462
    162 N14        -3.7730   -1.1410   -1.7940 n         1 MOL      0.128186
    163 C49        -4.1560   -2.5460   -1.5400 c3        1 MOL     -0.320702
    164 C50        -5.6910   -2.7690   -1.4570 c         1 MOL      0.297197
    165 O22        -6.3690   -2.0280   -0.7110 o         1 MOL     -0.446878
    166 C51        -3.4300   -2.9990   -0.2930 c3        1 MOL      0.358677
    167 C52        -3.6800   -4.4830    0.1610 c3        1 MOL     -0.220019
    168 C53        -3.1870   -5.4660   -0.8880 c         1 MOL      0.584496
    169 O23        -1.9580   -5.5080   -1.0910 o         1 MOL     -0.702065
    170 O24        -4.0690   -6.1270   -1.5440 o         1 MOL     -0.702065
    171 H80        -3.7370   -0.5100   -1.0060 hn        1 MOL     -0.054979
    172 H81        -3.7230   -3.0970   -2.3780 h1        1 MOL      0.106605
    173 H82        -3.8590   -2.3660    0.4850 hc        1 MOL     -0.056064
    174 H83        -2.3700   -2.7860   -0.4610 hc        1 MOL     -0.056064
    175 H84        -4.6720   -4.6320    0.5770 hc        1 MOL      0.091611
    176 H85        -3.0320   -4.7590    0.9960 hc        1 MOL      0.091611
    177 N15        -6.1030   -3.7760   -2.2670 n         1 MOL     -0.168468
    178 C54        -7.5610   -4.1020   -2.3130 c3        1 MOL     -0.051838
    179 H86        -8.1410   -3.1820   -2.2410 h1        1 MOL      0.055775
    180 H87        -7.7920   -4.6040   -3.2520 h1        1 MOL      0.055775
    181 H88        -7.8140   -4.7550   -1.4780 h1        1 MOL      0.055775
    182 H89        -5.5170   -4.1680   -2.9890 hn        1 MOL      0.283412
    183 Ca1         0.5380   -5.5810   -1.5900 Ca        1 MOL      1.644781
    184 O25        -1.5440   -6.9230   -3.4900 oh        1 MOL     -0.885756
    185 H90        -1.9510   -6.5700   -4.2860 ho        1 MOL      0.423240
    186 H91        -2.0840   -6.5870   -2.7720 ho        1 MOL      0.423240
    187 O26         2.9920   -4.8750   -2.5820 oh        1 MOL     -0.885756
    188 H92         3.6800   -5.3550   -2.1260 ho        1 MOL      0.423240
    189 H93         3.3160   -3.9780   -2.6510 ho        1 MOL      0.423240
    190 O27        -0.3110   -4.1590   -3.6890 oh        1 MOL     -0.885756
    191 H94        -0.2340   -3.2520   -3.4070 ho        1 MOL      0.423240
    192 H95        -0.8460   -4.1240   -4.4750 ho        1 MOL      0.423240
@<TRIPOS>BOND
     1    1    2 1   
     2    1    4 1   
     3    1    5 1   
     4    1    6 1   
     5    2    3 2   
     6    2    7 1   
     7    7    8 1   
     8    7   15 1   
     9    8    9 1   
    10    8   11 1   
    11    8   16 1   
    12    9   10 2   
    13    9   19 1   
    14   11   12 1   
    15   11   17 1   
    16   11   18 1   
    17   12   13 1   
    18   12   14 1   
    19   19   20 1   
    20   19   28 1   
    21   20   21 1   
    22   20   23 1   
    23   20   29 1   
    24   21   22 2   
    25   21   41 1   
    26   23   24 1   
    27   23   30 1   
    28   23   31 1   
    29   24   25 1   
    30   24   32 1   
    31   24   33 1   
    32   25   26 1   
    33   25   34 1   
    34   25   35 1   
    35   26   27 1   
    36   26   36 1   
    37   26   37 1   
    38   27   38 1   
    39   27   39 1   
    40   27   40 1   
    41   41   42 1   
    42   41   49 1   
    43   42   43 1   
    44   42   45 1   
    45   42   50 1   
    46   43   44 2   
    47   43   53 1   
    48   45   46 1   
    49   45   51 1   
    50   45   52 1   
    51   46   47 1   
    52   46   48 1   
    53   53   54 1   
    54   53   57 1   
    55   54   55 1   
    56   54   58 1   
    57   54   59 1   
    58   55   56 2   
    59   55   60 1   
    60   60   61 1   
    61   60   68 1   
    62   61   62 1   
    63   61   64 1   
    64   61   69 1   
    65   62   63 2   
    66   62   72 1   
    67   64   65 1   
    68   64   70 1   
    69   64   71 1   
    70   65   66 1   
    71   65   67 1   
    72   72   73 1   
    73   72   76 1   
    74   73   74 1   
    75   73   77 1   
    76   73   78 1   
    77   74   75 2   
    78   74   79 1   
    79   79   80 1   
    80   79   86 1   
    81   80   81 1   
    82   80   83 1   
    83   80   87 1   
    84   81   82 2   
    85   81   93 1   
    86   83   84 1   
    87   83   85 1   
    88   83   88 1   
    89   84   90 1   
    90   84   91 1   
    91   84   92 1   
    92   85   89 1   
    93   93   94 1   
    94   93  101 1   
    95   94   95 1   
    96   94   97 1   
    97   94  102 1   
    98   95   96 2   
    99   95  112 1   
   100   97   98 1   
   101   97   99 1   
   102   97  103 1   
   103   98  100 1   
   104   98  104 1   
   105   98  105 1   
   106   99  106 1   
   107   99  107 1   
   108   99  108 1   
   109  100  109 1   
   110  100  110 1   
   111  100  111 1   
   112  112  113 1   
   113  112  119 1   
   114  113  114 1   
   115  113  116 1   
   116  113  120 1   
   117  114  115 2   
   118  114  126 1   
   119  116  117 1   
   120  116  118 1   
   121  116  121 1   
   122  117  123 1   
   123  117  124 1   
   124  117  125 1   
   125  118  122 1   
   126  126  127 1   
   127  126  133 1   
   128  127  128 1   
   129  127  130 1   
   130  127  134 1   
   131  128  129 2   
   132  128  140 1   
   133  130  131 1   
   134  130  132 1   
   135  130  135 1   
   136  131  137 1   
   137  131  138 1   
   138  131  139 1   
   139  132  136 1   
   140  140  141 1   
   141  140  149 1   
   142  141  142 1   
   143  141  144 1   
   144  141  150 1   
   145  142  143 2   
   146  142  162 1   
   147  144  145 1   
   148  144  151 1   
   149  144  152 1   
   150  145  146 1   
   151  145  153 1   
   152  145  154 1   
   153  146  147 1   
   154  146  155 1   
   155  146  156 1   
   156  147  148 1   
   157  147  157 1   
   158  147  158 1   
   159  148  159 1   
   160  148  160 1   
   161  148  161 1   
   162  162  163 1   
   163  162  171 1   
   164  163  164 1   
   165  163  166 1   
   166  163  172 1   
   167  164  165 2   
   168  164  177 1   
   169  166  167 1   
   170  166  173 1   
   171  166  174 1   
   172  167  168 1   
   173  167  175 1   
   174  167  176 1   
   175  168  169 1   
   176  168  170 1   
   177  177  178 1   
   178  177  182 1   
   179  178  179 1   
   180  178  180 1   
   181  178  181 1   
   182  184  185 1   
   183  184  186 1   
   184  187  188 1   
   185  187  189 1   
   186  190  191 1   
   187  190  192 1   
@<TRIPOS>SUBSTRUCTURE
     1 MOL         1 TEMP              0 ****  ****    0 ROOT
