@<TRIPOS>MOLECULE
MOL
  201   193     1     0     0
SMALL
resp


@<TRIPOS>ATOM
      1 C1          7.9980    8.7260   -3.1270 c3        1 MOL     -0.344895
      2 C2          8.2690    7.5650   -2.1930 c         1 MOL      0.737760
      3 O1          9.0830    6.6890   -2.4810 o         1 MOL     -0.637412
      4 H1          8.8890    8.9280   -3.7230 hc        1 MOL      0.084065
      5 H2          7.1690    8.4760   -3.7890 hc        1 MOL      0.084065
      6 H3          7.7450    9.6110   -2.5440 hc        1 MOL      0.084065
      7 N1          7.5130    7.5430   -1.1020 n         1 MOL     -0.603812
      8 C3          7.5680    6.4410   -0.1540 c3        1 MOL      0.151038
      9 C4          7.0810    5.2030   -0.8460 c         1 MOL      0.713350
     10 O2          6.0160    5.2250   -1.4570 o         1 MOL     -0.569031
     11 C5          6.9350    6.6030    1.2020 c3        1 MOL     -0.220149
     12 C6          7.0720    8.0810    1.5960 c         1 MOL      0.726676
     13 O3          8.1040    8.3520    2.2200 o         1 MOL     -0.658794
     14 O4          6.1590    8.8670    1.3360 o         1 MOL     -0.658794
     15 H4          6.7640    8.2100   -0.9560 hn        1 MOL      0.320201
     16 H5          8.6080    6.3840    0.1580 h1        1 MOL      0.048546
     17 H6          7.4410    5.8840    1.8420 hc        1 MOL      0.034429
     18 H7          5.8890    6.3000    1.0840 hc        1 MOL      0.034429
     19 N2          7.7490    4.1080   -0.5470 n         1 MOL     -0.747883
     20 C7          7.4770    2.8100   -1.0590 c3        1 MOL      0.362716
     21 C8          6.7340    2.0040    0.0280 c         1 MOL      0.785322
     22 O5          7.3420    1.7430    1.0400 o         1 MOL     -0.599389
     23 C9          8.7400    2.0790   -1.4960 c3        1 MOL     -0.076665
     24 C10         8.3630    0.8320   -2.3310 c3        1 MOL     -0.043915
     25 C11         9.5900    0.0200   -2.6960 c3        1 MOL     -0.094964
     26 C12         9.1270   -1.2710   -3.3980 c3        1 MOL      0.121076
     27 N3         10.3250   -2.1090   -3.5060 n4        1 MOL     -0.219354
     28 H8          8.6200    4.1420   -0.0400 hn        1 MOL      0.298185
     29 H9          6.7940    2.9770   -1.8860 h1        1 MOL     -0.032727
     30 H10         9.3540    1.8310   -0.6280 hc        1 MOL      0.043499
     31 H11         9.2480    2.8100   -2.1310 hc        1 MOL      0.043499
     32 H12         7.9150    1.1030   -3.2780 hc        1 MOL      0.030859
     33 H13         7.7850    0.2220   -1.6280 hc        1 MOL      0.030859
     34 H14        10.0350   -0.2030   -1.7250 hc        1 MOL      0.041274
     35 H15        10.2430    0.6720   -3.2840 hc        1 MOL      0.041274
     36 H16         8.8150   -0.9590   -4.3890 hx        1 MOL      0.073241
     37 H17         8.2820   -1.8410   -2.9870 hx        1 MOL      0.073241
     38 H18        10.7790   -2.1610   -2.6020 hn        1 MOL      0.243388
     39 H19        10.1250   -3.0170   -3.9100 hn        1 MOL      0.243388
     40 H20        11.0360   -1.7200   -4.1190 hn        1 MOL      0.243388
     41 N4          5.5220    1.5040   -0.2660 n         1 MOL     -0.951870
     42 C13         4.7270    0.5840    0.5840 c3        1 MOL      0.608952
     43 C14         3.8810   -0.4520   -0.2510 c         1 MOL      0.358525
     44 O6          3.2900   -0.1200   -1.2910 o         1 MOL     -0.539592
     45 C15         3.6130    1.5070    1.2200 c3        1 MOL     -0.183992
     46 C16         2.7430    0.7940    2.2230 c         1 MOL      0.482501
     47 O7          1.5600    1.1860    2.4090 o         1 MOL     -0.636907
     48 O8          3.1640   -0.1710    2.9680 o         1 MOL     -0.636907
     49 H21         5.1520    1.8930   -1.1170 hn        1 MOL      0.351815
     50 H22         5.3010    0.1430    1.3970 h1        1 MOL     -0.060769
     51 H23         2.9710    1.9560    0.4660 hc        1 MOL      0.092607
     52 H24         4.1240    2.2990    1.7750 hc        1 MOL      0.092607
     53 N5          3.8960   -1.7240    0.1060 n         1 MOL     -0.425993
     54 C17         4.6490   -2.3370    1.2280 c3        1 MOL      0.006595
     55 C18         4.2380   -3.7800    1.5000 c         1 MOL      0.532034
     56 O9          4.5900   -4.6990    0.7530 o         1 MOL     -0.583437
     57 H25         3.1330   -2.2730   -0.2510 hn        1 MOL      0.362214
     58 H26         4.3420   -1.8510    2.1570 h1        1 MOL      0.035879
     59 H27         5.7290   -2.3900    1.1110 h1        1 MOL      0.035879
     60 N6          3.6690   -4.0700    2.6590 n         1 MOL     -0.307584
     61 C19         3.1190   -5.4100    3.0250 c3        1 MOL     -0.079647
     62 C20         2.0360   -5.8830    2.0160 c         1 MOL      0.636114
     63 O10         0.9940   -5.2350    1.8490 o         1 MOL     -0.526484
     64 C21         2.5770   -5.4720    4.4500 c3        1 MOL     -0.013271
     65 C22         1.7290   -4.3750    4.9400 c         1 MOL      0.653782
     66 O11         1.0830   -4.5950    5.9940 o         1 MOL     -0.711292
     67 O12         1.5260   -3.3460    4.2420 o         1 MOL     -0.711292
     68 H28         3.2410   -3.3290    3.1930 hn        1 MOL      0.178706
     69 H29         3.8890   -6.1720    2.9390 h1        1 MOL      0.041441
     70 H30         3.3700   -5.5390    5.1990 hc        1 MOL      0.031844
     71 H31         2.1660   -6.4800    4.5190 hc        1 MOL      0.031844
     72 N7          2.3840   -6.9780    1.3480 n         1 MOL     -0.524795
     73 C23         1.4120   -7.6560    0.4440 c3        1 MOL     -0.001184
     74 C24         1.2260   -7.0670   -0.9510 c         1 MOL      0.500371
     75 O13         0.9080   -7.7440   -1.9100 o         1 MOL     -0.551122
     76 H32         3.1880   -7.5340    1.5900 hn        1 MOL      0.336110
     77 H33         0.4330   -7.6690    0.9240 h1        1 MOL      0.084283
     78 H34         1.5590   -8.7270    0.2980 h1        1 MOL      0.084283
     79 N8          1.6710   -5.7810   -1.1390 n         1 MOL     -0.304500
     80 C25         1.6500   -4.9770   -2.3130 c3        1 MOL      0.054629
     81 C26         1.2710   -3.5660   -2.0050 c         1 MOL      0.456461
     82 O14         1.3790   -3.0660   -0.8870 o         1 MOL     -0.378304
     83 C27         3.0120   -5.1780   -2.9870 c3        1 MOL      0.314380
     84 C28         3.3040   -4.6960   -4.4440 c3        1 MOL     -0.340068
     85 O15         4.1000   -4.4880   -2.3840 oh        1 MOL     -0.593886
     86 H35         1.9880   -5.3650   -0.2820 hn        1 MOL      0.104703
     87 H36         0.9470   -5.4190   -3.0210 h1        1 MOL      0.064265
     88 H37         3.2090   -6.2410   -3.1130 h1        1 MOL      0.028048
     89 H38         4.5660   -5.1380   -1.8580 ho        1 MOL      0.376828
     90 H39         2.4590   -4.9020   -5.0880 hc        1 MOL      0.077554
     91 H40         3.4930   -3.6150   -4.4840 hc        1 MOL      0.077554
     92 H41         4.2530   -5.1120   -4.7780 hc        1 MOL      0.077554
     93 N9          0.6800   -2.8410   -2.9190 n         1 MOL     -0.426814
     94 C29         0.3180   -1.4220   -2.7220 c3        1 MOL     -0.125530
     95 C30        -0.9850   -1.2380   -1.9110 c         1 MOL      0.286476
     96 O16        -1.0710   -0.4310   -0.9830 o         1 MOL     -0.445480
     97 C31         0.2790   -0.7160   -4.0950 c3        1 MOL      0.349487
     98 C32         1.4200   -1.0320   -5.0310 c3        1 MOL     -0.090018
     99 C33         0.2110    0.7980   -3.7640 c3        1 MOL     -0.363891
    100 C34         1.3620   -0.3200   -6.4170 c3        1 MOL     -0.261411
    101 H42         0.5010   -3.3010   -3.7980 hn        1 MOL      0.269954
    102 H43         1.0910   -1.0230   -2.0590 h1        1 MOL      0.140500
    103 H44        -0.6560   -0.9840   -4.5780 hc        1 MOL     -0.060752
    104 H45         1.5230   -2.0960   -5.2350 hc        1 MOL      0.049576
    105 H46         2.3120   -0.7770   -4.4590 hc        1 MOL      0.049576
    106 H47         1.0950    1.0080   -3.1530 hc        1 MOL      0.109113
    107 H48         0.3000    1.4530   -4.6290 hc        1 MOL      0.109113
    108 H49        -0.7860    1.0390   -3.4280 hc        1 MOL      0.109113
    109 H50         1.0720    0.7270   -6.4050 hc        1 MOL      0.066558
    110 H51         2.3980   -0.4540   -6.7410 hc        1 MOL      0.066558
    111 H52         0.7180   -0.8160   -7.1460 hc        1 MOL      0.066558
    112 N10        -2.1290   -1.9070   -2.2220 n         1 MOL     -0.180685
    113 C35        -3.3570   -1.8790   -1.4120 c3        1 MOL     -0.203475
    114 C36        -4.5490   -2.3660   -2.1400 c         1 MOL      0.643327
    115 O17        -4.4490   -3.1310   -3.0950 o         1 MOL     -0.546397
    116 C37        -3.1770   -2.7720   -0.1130 c3        1 MOL      0.198586
    117 C38        -2.6050   -4.1760   -0.2340 c3        1 MOL     -0.318158
    118 O18        -2.4940   -1.9910    0.8920 oh        1 MOL     -0.565844
    119 H53        -2.1260   -2.4500   -3.0730 hn        1 MOL      0.203552
    120 H54        -3.5160   -0.8490   -1.0790 h1        1 MOL      0.120346
    121 H55        -4.1650   -2.9630    0.3170 h1        1 MOL      0.073529
    122 H56        -1.6390   -1.8310    0.4910 ho        1 MOL      0.411748
    123 H57        -2.6480   -4.6620    0.7490 hc        1 MOL      0.090633
    124 H58        -3.1970   -4.8430   -0.8510 hc        1 MOL      0.090633
    125 H59        -1.5510   -4.1260   -0.5110 hc        1 MOL      0.090633
    126 N11        -5.7040   -2.0220   -1.6340 n         1 MOL     -0.490829
    127 C39        -6.9510   -2.1540   -2.5120 c3        1 MOL      0.035970
    128 C40        -7.5830   -0.7580   -2.4540 c         1 MOL      0.450854
    129 O19        -7.7220   -0.0990   -3.5110 o         1 MOL     -0.517152
    130 C41        -7.8910   -3.2970   -2.0740 c3        1 MOL      0.284209
    131 C42        -9.3000   -3.1690   -2.6940 c3        1 MOL     -0.292929
    132 O20        -7.9590   -3.3390   -0.6630 oh        1 MOL     -0.614197
    133 H60        -5.7560   -1.5700   -0.7380 hn        1 MOL      0.316484
    134 H61        -6.6680   -2.2980   -3.5530 h1        1 MOL      0.089092
    135 H62        -7.4470   -4.2230   -2.4290 h1        1 MOL      0.040093
    136 H63        -8.8280   -3.7120   -0.4810 ho        1 MOL      0.402429
    137 H64        -9.9410   -2.5160   -2.1100 hc        1 MOL      0.079448
    138 H65        -9.2490   -2.7550   -3.7030 hc        1 MOL      0.079448
    139 H66        -9.7540   -4.1560   -2.7840 hc        1 MOL      0.079448
    140 N12        -8.1770   -0.3210   -1.3010 n         1 MOL     -0.385165
    141 C43        -8.6620    1.0210   -1.0130 c3        1 MOL      0.064016
    142 C44        -7.9450    1.5950    0.1810 c         1 MOL      0.626100
    143 O21        -7.7580    0.8580    1.1520 o         1 MOL     -0.531741
    144 C45       -10.1640    0.9170   -0.9230 c3        1 MOL     -0.175361
    145 C46       -10.8020    2.3100   -0.8960 c3        1 MOL      0.367909
    146 C47       -12.3430    2.1740   -0.9020 c3        1 MOL     -0.073253
    147 C48       -12.9190    3.5780   -1.1990 c3        1 MOL      0.152806
    148 N13       -14.4110    3.7300   -0.7790 n4        1 MOL     -0.316336
    149 H67        -7.8950   -0.9100   -0.5250 hn        1 MOL      0.235529
    150 H68        -8.6120    1.6090   -1.9290 h1        1 MOL      0.053902
    151 H69       -10.5320    0.3920   -0.0420 hc        1 MOL      0.049186
    152 H70       -10.5700    0.4070   -1.7990 hc        1 MOL      0.049186
    153 H71       -10.4150    2.9190   -1.7120 hc        1 MOL     -0.096948
    154 H72       -10.4690    2.8690   -0.0190 hc        1 MOL     -0.096948
    155 H73       -12.6320    1.8580    0.0940 hc        1 MOL      0.013447
    156 H74       -12.7890    1.4820   -1.6120 hc        1 MOL      0.013447
    157 H75       -12.7890    3.7770   -2.2610 hx        1 MOL      0.042865
    158 H76       -12.3940    4.3650   -0.6530 hx        1 MOL      0.042865
    159 H77       -15.0080    3.1650   -1.3720 hn        1 MOL      0.268696
    160 H78       -14.5200    3.3880    0.1570 hn        1 MOL      0.268696
    161 H79       -14.7030    4.6940   -0.7670 hn        1 MOL      0.268696
    162 N14        -7.6710    2.8820    0.1700 n         1 MOL     -0.644610
    163 C49        -6.7150    3.5130    1.1240 c3        1 MOL      0.335430
    164 C50        -5.2700    3.0810    0.8120 c         1 MOL      0.313529
    165 O22        -4.5420    2.3930    1.5760 o         1 MOL     -0.514862
    166 C51        -6.9910    5.0180    1.3550 c3        1 MOL      0.013173
    167 C52        -8.4980    5.3540    1.5960 c3        1 MOL     -0.270441
    168 C53        -8.6170    6.8310    1.9710 c         1 MOL      0.669326
    169 O23        -8.5130    7.2230    3.1640 o         1 MOL     -0.665445
    170 O24        -8.9090    7.6760    1.0410 o         1 MOL     -0.665445
    171 H80        -8.0460    3.5250   -0.5220 hn        1 MOL      0.341254
    172 H81        -6.8950    3.1580    2.1380 h1        1 MOL      0.014178
    173 H82        -6.6500    5.5660    0.4860 hc        1 MOL      0.039307
    174 H83        -6.3310    5.2330    2.1940 hc        1 MOL      0.039307
    175 H84        -8.9290    4.8150    2.4370 hc        1 MOL      0.052953
    176 H85        -9.0590    5.1530    0.6900 hc        1 MOL      0.052953
    177 N15        -4.5970    3.5080   -0.2900 n         1 MOL     -0.349313
    178 C54        -5.0700    4.5190   -1.3110 c3        1 MOL     -0.060259
    179 H86        -4.2550    4.7520   -1.9960 h1        1 MOL      0.054485
    180 H87        -5.9070    4.1040   -1.8730 h1        1 MOL      0.054485
    181 H88        -5.3890    5.4290   -0.8020 h1        1 MOL      0.054485
    182 H89        -3.6880    3.0860   -0.3970 hn        1 MOL      0.312923
    183 Ca1         0.9370   -0.9230    4.2230 Ca        1 MOL      1.774002
    184 O25         3.0740   -1.2550    6.1480 oh        1 MOL     -0.836664
    185 H90         2.8510   -1.6670    6.9790 ho        1 MOL      0.415331
    186 H91         3.9920   -1.0320    6.2290 ho        1 MOL      0.415331
    187 O26         0.4310   -2.4450    1.8370 oh        1 MOL     -0.836664
    188 H92         0.8010   -3.2330    1.4370 ho        1 MOL      0.415331
    189 H93        -0.4140   -2.7390    2.1940 ho        1 MOL      0.415331
    190 O27        -1.5100   -2.2540    3.8390 oh        1 MOL     -0.836664
    191 H94        -1.5260   -2.7270    4.6680 ho        1 MOL      0.415331
    192 H95        -2.4270   -1.9950    3.6990 ho        1 MOL      0.415331
    193 O28         1.4720    1.3180    5.4910 oh        1 MOL     -0.836664
    194 H96         0.8920    2.0810    5.4330 ho        1 MOL      0.415331
    195 H97         2.1980    1.6020    6.0360 ho        1 MOL      0.415331
    196 O29        -0.6400   -1.3550    6.4260 oh        1 MOL     -0.836664
    197 H98        -1.5210   -1.2180    6.7750 ho        1 MOL      0.415331
    198 H99        -0.2420   -2.0000    7.0020 ho        1 MOL      0.415331
    199 O30        -1.2740    0.6120    3.5650 oh        1 MOL     -0.836664
    200 H100       -2.1100    0.7690    4.0040 ho        1 MOL      0.415331
    201 H101       -1.4190    0.8800    2.6620 ho        1 MOL      0.415331
@<TRIPOS>BOND
     1    1    2 1   
     2    1    4 1   
     3    1    5 1   
     4    1    6 1   
     5    2    3 2   
     6    2    7 1   
     7    7    8 1   
     8    7   15 1   
     9    8    9 1   
    10    8   11 1   
    11    8   16 1   
    12    9   10 2   
    13    9   19 1   
    14   11   12 1   
    15   11   17 1   
    16   11   18 1   
    17   12   13 1   
    18   12   14 1   
    19   19   20 1   
    20   19   28 1   
    21   20   21 1   
    22   20   23 1   
    23   20   29 1   
    24   21   22 2   
    25   21   41 1   
    26   23   24 1   
    27   23   30 1   
    28   23   31 1   
    29   24   25 1   
    30   24   32 1   
    31   24   33 1   
    32   25   26 1   
    33   25   34 1   
    34   25   35 1   
    35   26   27 1   
    36   26   36 1   
    37   26   37 1   
    38   27   38 1   
    39   27   39 1   
    40   27   40 1   
    41   41   42 1   
    42   41   49 1   
    43   42   43 1   
    44   42   45 1   
    45   42   50 1   
    46   43   44 2   
    47   43   53 1   
    48   45   46 1   
    49   45   51 1   
    50   45   52 1   
    51   46   47 1   
    52   46   48 1   
    53   53   54 1   
    54   53   57 1   
    55   54   55 1   
    56   54   58 1   
    57   54   59 1   
    58   55   56 2   
    59   55   60 1   
    60   60   61 1   
    61   60   68 1   
    62   61   62 1   
    63   61   64 1   
    64   61   69 1   
    65   62   63 2   
    66   62   72 1   
    67   64   65 1   
    68   64   70 1   
    69   64   71 1   
    70   65   66 1   
    71   65   67 1   
    72   72   73 1   
    73   72   76 1   
    74   73   74 1   
    75   73   77 1   
    76   73   78 1   
    77   74   75 2   
    78   74   79 1   
    79   79   80 1   
    80   79   86 1   
    81   80   81 1   
    82   80   83 1   
    83   80   87 1   
    84   81   82 2   
    85   81   93 1   
    86   83   84 1   
    87   83   85 1   
    88   83   88 1   
    89   84   90 1   
    90   84   91 1   
    91   84   92 1   
    92   85   89 1   
    93   93   94 1   
    94   93  101 1   
    95   94   95 1   
    96   94   97 1   
    97   94  102 1   
    98   95   96 2   
    99   95  112 1   
   100   97   98 1   
   101   97   99 1   
   102   97  103 1   
   103   98  100 1   
   104   98  104 1   
   105   98  105 1   
   106   99  106 1   
   107   99  107 1   
   108   99  108 1   
   109  100  109 1   
   110  100  110 1   
   111  100  111 1   
   112  112  113 1   
   113  112  119 1   
   114  113  114 1   
   115  113  116 1   
   116  113  120 1   
   117  114  115 2   
   118  114  126 1   
   119  116  117 1   
   120  116  118 1   
   121  116  121 1   
   122  117  123 1   
   123  117  124 1   
   124  117  125 1   
   125  118  122 1   
   126  126  127 1   
   127  126  133 1   
   128  127  128 1   
   129  127  130 1   
   130  127  134 1   
   131  128  129 2   
   132  128  140 1   
   133  130  131 1   
   134  130  132 1   
   135  130  135 1   
   136  131  137 1   
   137  131  138 1   
   138  131  139 1   
   139  132  136 1   
   140  140  141 1   
   141  140  149 1   
   142  141  142 1   
   143  141  144 1   
   144  141  150 1   
   145  142  143 2   
   146  142  162 1   
   147  144  145 1   
   148  144  151 1   
   149  144  152 1   
   150  145  146 1   
   151  145  153 1   
   152  145  154 1   
   153  146  147 1   
   154  146  155 1   
   155  146  156 1   
   156  147  148 1   
   157  147  157 1   
   158  147  158 1   
   159  148  159 1   
   160  148  160 1   
   161  148  161 1   
   162  162  163 1   
   163  162  171 1   
   164  163  164 1   
   165  163  166 1   
   166  163  172 1   
   167  164  165 2   
   168  164  177 1   
   169  166  167 1   
   170  166  173 1   
   171  166  174 1   
   172  167  168 1   
   173  167  175 1   
   174  167  176 1   
   175  168  169 1   
   176  168  170 1   
   177  177  178 1   
   178  177  182 1   
   179  178  179 1   
   180  178  180 1   
   181  178  181 1   
   182  184  185 1   
   183  184  186 1   
   184  187  188 1   
   185  187  189 1   
   186  190  191 1   
   187  190  192 1   
   188  193  194 1   
   189  193  195 1   
   190  196  197 1   
   191  196  198 1   
   192  199  200 1   
   193  199  201 1   
@<TRIPOS>SUBSTRUCTURE
     1 MOL         1 TEMP              0 ****  ****    0 ROOT
