@<TRIPOS>MOLECULE
MOL
  181   177     1     0     0
SMALL
resp


@<TRIPOS>ATOM
      1 C1          1.7770   -0.5610    5.3820 c3        1 MOL     -0.396641
      2 C2          2.6980    0.2970    4.5120 c         1 MOL      0.676680
      3 O1          2.3420    0.9000    3.4940 o         1 MOL     -0.619135
      4 H1          1.0250   -1.0380    4.7540 hc        1 MOL      0.099903
      5 H2          2.3650   -1.3270    5.8870 hc        1 MOL      0.099903
      6 H3          1.2860    0.0690    6.1230 hc        1 MOL      0.099903
      7 N1          4.0040    0.3170    4.8130 n         1 MOL     -0.318690
      8 C3          5.1050    1.0450    4.1350 c3        1 MOL     -0.101455
      9 C4          5.6160    0.3780    2.7810 c         1 MOL      0.750026
     10 O2          6.2370    1.0120    2.0060 o         1 MOL     -0.611055
     11 C5          6.1820    1.3740    5.1870 c3        1 MOL     -0.313192
     12 C6          5.6550    1.9820    6.4000 c         1 MOL      0.749627
     13 O3          5.2460    3.1680    6.3000 o         1 MOL     -0.734542
     14 O4          5.5380    1.4270    7.5290 o         1 MOL     -0.734542
     15 H4          4.2200   -0.1760    5.6690 hn        1 MOL      0.211166
     16 H5          4.7060    1.9770    3.7360 h1        1 MOL      0.130868
     17 H6          6.9420    2.0490    4.7760 hc        1 MOL      0.061807
     18 H7          6.7960    0.5050    5.4390 hc        1 MOL      0.061807
     19 N2          5.2800   -0.9020    2.5720 n         1 MOL     -0.478012
     20 C7          5.6500   -1.6760    1.3610 c3        1 MOL      0.026944
     21 C8          5.3610   -1.0600   -0.0250 c         1 MOL      0.469948
     22 O5          4.2120   -1.1270   -0.4460 o         1 MOL     -0.517833
     23 C9          7.1880   -1.9100    1.5150 c3        1 MOL     -0.496337
     24 H8          4.7270   -1.3810    3.2640 hn        1 MOL      0.267768
     25 H9          5.1320   -2.6250    1.4130 h1        1 MOL      0.182122
     26 H10         7.8530   -1.0360    1.4610 hc        1 MOL      0.134577
     27 H11         7.4160   -2.2090    2.5440 hc        1 MOL      0.134577
     28 H12         7.5090   -2.6950    0.8330 hc        1 MOL      0.134577
     29 N3          6.3590   -0.5660   -0.7700 n         1 MOL     -0.147269
     30 C10         6.2020    0.2020   -2.0300 c3        1 MOL     -0.069136
     31 C11         5.7800    1.7380   -1.8640 c         1 MOL      0.476140
     32 O6          5.5570    2.4870   -2.8180 o         1 MOL     -0.540257
     33 C12         7.4310    0.1080   -2.8780 c3        1 MOL     -0.227537
     34 C13         7.8980   -1.2570   -3.0860 c         1 MOL      0.783138
     35 O7          7.1980   -1.9060   -3.9260 o         1 MOL     -0.736486
     36 O8          8.9170   -1.7600   -2.5200 o         1 MOL     -0.736486
     37 H13         7.2860   -0.5870   -0.3620 hn        1 MOL      0.187056
     38 H14         5.4580   -0.3220   -2.6380 h1        1 MOL      0.101321
     39 H15         8.3110    0.5830   -2.4510 hc        1 MOL      0.042967
     40 H16         7.2060    0.5850   -3.8320 hc        1 MOL      0.042967
     41 N4          5.5740    2.2060   -0.6500 n         1 MOL     -0.290745
     42 C14         5.1460    3.5980   -0.2160 c3        1 MOL      0.042963
     43 C15         3.9140    4.1360   -0.9550 c         1 MOL      0.477764
     44 O9          3.7710    5.3590   -1.2320 o         1 MOL     -0.543708
     45 H17         5.6980    1.5240    0.0830 hn        1 MOL      0.203133
     46 H18         5.8840    4.4050   -0.2460 h1        1 MOL      0.062281
     47 H19         4.8880    3.4800    0.8310 h1        1 MOL      0.062281
     48 N5          3.0050    3.2430   -1.3530 n         1 MOL     -0.192236
     49 C16         1.8390    3.4420   -2.1440 c3        1 MOL     -0.409577
     50 C17         0.9020    4.5890   -1.5030 c         1 MOL      0.666540
     51 O10         0.7330    4.7620   -0.3110 o         1 MOL     -0.493912
     52 C18         1.1540    2.0550   -2.2800 c3        1 MOL     -0.150556
     53 C19         1.9630    1.0150   -3.0560 c         1 MOL      0.655682
     54 N6          2.2600    1.2680   -4.3450 n         1 MOL     -0.638189
     55 O11         2.2940   -0.0940   -2.5760 o         1 MOL     -0.643362
     56 H20         3.1290    2.3390   -0.9220 hn        1 MOL      0.228714
     57 H21         2.3120    3.7040   -3.0890 h1        1 MOL      0.151554
     58 H22         0.2020    2.0930   -2.8250 hc        1 MOL      0.121659
     59 H23         0.8710    1.6440   -1.3210 hc        1 MOL      0.121659
     60 H24         1.9340    2.1160   -4.7810 hn        1 MOL      0.308469
     61 H25         2.8330    0.5880   -4.8220 hn        1 MOL      0.308469
     62 N7          0.2250    5.3020   -2.4100 n         1 MOL     -0.374910
     63 C20        -0.6420    6.4670   -2.1160 c3        1 MOL     -0.321551
     64 C21        -2.1750    6.2620   -2.1890 c         1 MOL      0.665177
     65 O12        -2.6210    5.6330   -3.0830 o         1 MOL     -0.514997
     66 H26         0.3260    5.0530   -3.3890 hn        1 MOL      0.291530
     67 H27        -0.5350    7.0420   -3.0340 h1        1 MOL      0.141688
     68 H28        -0.3340    7.0540   -1.2560 h1        1 MOL      0.141688
     69 N8         -2.8850    6.7140   -1.1410 n         1 MOL     -0.592548
     70 C22        -4.3300    6.5210   -1.0120 c3        1 MOL     -0.152764
     71 C23        -4.8210    5.2030   -0.3970 c         1 MOL      0.359948
     72 O13        -6.0090    4.8560   -0.3840 o         1 MOL     -0.500903
     73 C24        -4.9820    7.7640   -0.2940 c3        1 MOL      0.455279
     74 C25        -4.6150    7.9710    1.1880 c3        1 MOL     -0.437913
     75 O14        -4.6420    8.9470   -0.9820 oh        1 MOL     -0.622095
     76 H29        -2.3220    7.2180   -0.4760 hn        1 MOL      0.300514
     77 H30        -4.7650    6.5130   -2.0080 h1        1 MOL      0.163090
     78 H31        -6.0270    7.5350   -0.4940 h1        1 MOL      0.023650
     79 H32        -3.7360    9.1160   -0.7320 ho        1 MOL      0.378558
     80 H33        -3.5400    7.9920    1.3340 hc        1 MOL      0.111000
     81 H34        -4.9750    8.9220    1.5810 hc        1 MOL      0.111000
     82 H35        -5.0820    7.1880    1.7770 hc        1 MOL      0.111000
     83 N9         -3.7900    4.4930    0.0760 n         1 MOL     -0.053675
     84 C26        -3.8780    3.1150    0.5370 c3        1 MOL     -0.187022
     85 C27        -2.9170    2.1800   -0.2330 c         1 MOL      0.615524
     86 O15        -2.3710    2.5810   -1.2770 o         1 MOL     -0.530988
     87 C28        -3.6910    3.0040    2.0980 c3        1 MOL      0.004411
     88 C29        -2.3210    3.3680    2.6830 c3        1 MOL     -0.176468
     89 C30        -4.6680    3.9740    2.7960 c3        1 MOL     -0.260550
     90 C31        -1.0590    2.6160    2.1970 c3        1 MOL     -0.122369
     91 H36        -2.8510    4.8370   -0.0420 hn        1 MOL      0.251155
     92 H37        -4.8290    2.7200    0.1700 h1        1 MOL      0.128521
     93 H38        -3.8840    1.9610    2.3560 hc        1 MOL      0.059155
     94 H39        -2.4400    3.1720    3.7480 hc        1 MOL      0.068847
     95 H40        -2.1220    4.4120    2.4700 hc        1 MOL      0.068847
     96 H41        -4.4450    4.9940    2.5100 hc        1 MOL      0.066217
     97 H42        -5.7190    3.7060    2.6410 hc        1 MOL      0.066217
     98 H43        -4.4880    3.9150    3.8720 hc        1 MOL      0.066217
     99 H44        -0.2830    2.8640    2.9190 hc        1 MOL      0.072286
    100 H45        -1.1740    1.5380    2.2610 hc        1 MOL      0.072286
    101 H46        -0.7430    2.9260    1.1940 hc        1 MOL      0.072286
    102 N10        -2.9070    0.8760    0.1370 n         1 MOL     -0.620073
    103 C32        -2.1910   -0.2010   -0.5590 c3        1 MOL      0.131713
    104 C33        -2.9740   -1.5730   -0.6550 c         1 MOL      0.341209
    105 O16        -2.5760   -2.6620   -0.1820 o         1 MOL     -0.430938
    106 C34        -0.8850   -0.4850    0.1540 c3        1 MOL     -0.074068
    107 C35         0.0530   -1.4760   -0.5280 c         1 MOL      0.559783
    108 O17         1.1650   -1.7780   -0.0200 o         1 MOL     -0.706837
    109 O18        -0.2370   -1.9530   -1.6630 o         1 MOL     -0.706837
    110 H47        -3.4390    0.4670    0.9000 hn        1 MOL      0.344848
    111 H48        -1.9410    0.0460   -1.5960 h1        1 MOL      0.045012
    112 H49        -1.0790   -0.8190    1.1730 hc        1 MOL      0.061806
    113 H50        -0.3480    0.4650    0.2630 hc        1 MOL      0.061806
    114 N11        -4.2300   -1.4140   -1.0770 n         1 MOL     -0.291579
    115 C36        -5.0730   -2.5210   -1.5690 c3        1 MOL      0.231309
    116 C37        -5.1960   -3.7250   -0.6580 c         1 MOL      0.245565
    117 O19        -5.5570   -3.5110    0.5430 o         1 MOL     -0.467313
    118 C38        -6.4600   -1.8350   -1.7900 c3        1 MOL     -0.214300
    119 C39        -6.9570   -0.7690   -0.8730 ca        1 MOL      0.054024
    120 C40        -7.6100   -1.1210    0.3290 ca        1 MOL     -0.136437
    121 C41        -6.8400    0.5980   -1.1760 ca        1 MOL     -0.136437
    122 C42        -8.1270   -0.1160    1.2040 ca        1 MOL     -0.135495
    123 C43        -7.4670    1.5830   -0.3540 ca        1 MOL     -0.135495
    124 C44        -8.0140    1.2670    0.8830 ca        1 MOL     -0.094087
    125 H51        -4.4920   -0.4690   -1.3240 hn        1 MOL      0.221467
    126 H52        -4.6550   -2.8200   -2.5240 h1        1 MOL      0.000552
    127 H53        -7.1300   -2.6960   -1.8400 hc        1 MOL      0.067572
    128 H54        -6.4230   -1.4350   -2.8060 hc        1 MOL      0.067572
    129 H55        -7.9550   -2.1210    0.5110 ha        1 MOL      0.128640
    130 H56        -6.3310    0.9450   -2.0600 ha        1 MOL      0.128640
    131 H57        -8.7820   -0.3960    2.0280 ha        1 MOL      0.113223
    132 H58        -7.5000    2.6300   -0.6020 ha        1 MOL      0.113223
    133 H59        -8.4860    1.9920    1.5340 ha        1 MOL      0.115012
    134 N12        -4.8590   -4.9790   -1.0570 n         1 MOL     -0.033365
    135 C45        -5.0500   -6.1540   -0.1890 c3        1 MOL     -0.022907
    136 C46        -4.1430   -6.0750    1.0420 c         1 MOL      0.203939
    137 O20        -4.3890   -6.8000    2.0630 o         1 MOL     -0.511726
    138 C47        -4.5710   -7.3300   -1.0980 c3        1 MOL     -0.011318
    139 C48        -4.8800   -6.8650   -2.5070 c3        1 MOL     -0.119114
    140 C49        -4.5430   -5.3250   -2.4180 c3        1 MOL      0.014484
    141 H60        -6.0950   -6.2170    0.0870 h1        1 MOL      0.089096
    142 H61        -3.5220   -7.4120   -0.8050 hc        1 MOL      0.036945
    143 H62        -5.0380   -8.3100   -1.0190 hc        1 MOL      0.036945
    144 H63        -4.3130   -7.3070   -3.3310 hc        1 MOL      0.049320
    145 H64        -5.9490   -6.9440   -2.7090 hc        1 MOL      0.049320
    146 H65        -3.5350   -5.1270   -2.7520 h1        1 MOL      0.025807
    147 H66        -5.2360   -4.8800   -3.1320 h1        1 MOL      0.025807
    148 N13        -3.1370   -5.2060    1.0710 n         1 MOL      0.161746
    149 C50        -2.2760   -5.0260    2.2650 c3        1 MOL     -0.426506
    150 C51        -2.8870   -4.0950    3.2760 c         1 MOL      0.534234
    151 O21        -2.6730   -4.2470    4.4830 o         1 MOL     -0.555430
    152 C52        -0.8530   -4.7320    1.8510 c3        1 MOL      0.205219
    153 C53        -0.2510   -5.5460    0.7310 c3        1 MOL     -0.017218
    154 C54         1.1700   -5.1060    0.3120 c         1 MOL      0.676405
    155 O22         1.9860   -5.2080    1.2630 o         1 MOL     -0.707071
    156 O23         1.3990   -4.7360   -0.8610 o         1 MOL     -0.707071
    157 H67        -2.7380   -4.8090    0.2330 hn        1 MOL      0.200800
    158 H68        -2.0960   -6.0090    2.7070 h1        1 MOL      0.156407
    159 H69        -0.2630   -4.9890    2.7330 hc        1 MOL      0.004960
    160 H70        -0.7010   -3.6690    1.6820 hc        1 MOL      0.004960
    161 H71        -0.9190   -5.3850   -0.1230 hc        1 MOL     -0.066790
    162 H72        -0.2730   -6.6280    0.8620 hc        1 MOL     -0.066790
    163 N14        -3.6930   -3.1600    2.8260 n         1 MOL     -0.192943
    164 C55        -4.5640   -2.2660    3.6070 c3        1 MOL     -0.155578
    165 H73        -5.5960   -2.6070    3.5300 h1        1 MOL      0.075888
    166 H74        -4.2560   -2.2780    4.6530 h1        1 MOL      0.075888
    167 H75        -4.4880   -1.2510    3.2180 h1        1 MOL      0.075888
    168 H76        -3.7060   -3.0090    1.8310 hn        1 MOL      0.179436
    169 Ca1         2.4320   -2.7130   -2.1360 Ca        1 MOL      1.770722
    170 O24         2.8360   -4.7500   -3.8790 oh        1 MOL     -0.851496
    171 H77         2.4410   -4.9030   -4.7360 ho        1 MOL      0.406138
    172 H78         3.6650   -5.2280   -3.9160 ho        1 MOL      0.406138
    173 O25         4.3990   -3.9110   -0.9200 oh        1 MOL     -0.851496
    174 H79         4.2840   -4.8100   -0.5930 ho        1 MOL      0.406138
    175 H80         5.2820   -3.9030   -1.2880 ho        1 MOL      0.406138
    176 O26         1.3790   -2.1320   -4.5210 oh        1 MOL     -0.851496
    177 H81         0.4900   -1.8230   -4.6690 ho        1 MOL      0.406138
    178 H82         1.6770   -2.4260   -5.3740 ho        1 MOL      0.406138
    179 O27         4.6180   -2.4780   -3.9990 oh        1 MOL     -0.851496
    180 H83         4.1800   -2.5700   -4.8460 ho        1 MOL      0.406138
    181 H84         5.5140   -2.2310   -4.2200 ho        1 MOL      0.406138
@<TRIPOS>BOND
     1    1    2 1   
     2    1    4 1   
     3    1    5 1   
     4    1    6 1   
     5    2    3 2   
     6    2    7 1   
     7    7    8 1   
     8    7   15 1   
     9    8    9 1   
    10    8   11 1   
    11    8   16 1   
    12    9   10 2   
    13    9   19 1   
    14   11   12 1   
    15   11   17 1   
    16   11   18 1   
    17   12   13 1   
    18   12   14 1   
    19   19   20 1   
    20   19   24 1   
    21   20   21 1   
    22   20   23 1   
    23   20   25 1   
    24   21   22 2   
    25   21   29 1   
    26   23   26 1   
    27   23   27 1   
    28   23   28 1   
    29   29   30 1   
    30   29   37 1   
    31   30   31 1   
    32   30   33 1   
    33   30   38 1   
    34   31   32 2   
    35   31   41 1   
    36   33   34 1   
    37   33   39 1   
    38   33   40 1   
    39   34   35 1   
    40   34   36 1   
    41   41   42 1   
    42   41   45 1   
    43   42   43 1   
    44   42   46 1   
    45   42   47 1   
    46   43   44 2   
    47   43   48 1   
    48   48   49 1   
    49   48   56 1   
    50   49   50 1   
    51   49   52 1   
    52   49   57 1   
    53   50   51 2   
    54   50   62 1   
    55   52   53 1   
    56   52   58 1   
    57   52   59 1   
    58   53   54 1   
    59   53   55 2   
    60   54   60 1   
    61   54   61 1   
    62   62   63 1   
    63   62   66 1   
    64   63   64 1   
    65   63   67 1   
    66   63   68 1   
    67   64   65 2   
    68   64   69 1   
    69   69   70 1   
    70   69   76 1   
    71   70   71 1   
    72   70   73 1   
    73   70   77 1   
    74   71   72 2   
    75   71   83 1   
    76   73   74 1   
    77   73   75 1   
    78   73   78 1   
    79   74   80 1   
    80   74   81 1   
    81   74   82 1   
    82   75   79 1   
    83   83   84 1   
    84   83   91 1   
    85   84   85 1   
    86   84   87 1   
    87   84   92 1   
    88   85   86 2   
    89   85  102 1   
    90   87   88 1   
    91   87   89 1   
    92   87   93 1   
    93   88   90 1   
    94   88   94 1   
    95   88   95 1   
    96   89   96 1   
    97   89   97 1   
    98   89   98 1   
    99   90   99 1   
   100   90  100 1   
   101   90  101 1   
   102  102  103 1   
   103  102  110 1   
   104  103  104 1   
   105  103  106 1   
   106  103  111 1   
   107  104  105 2   
   108  104  114 1   
   109  106  107 1   
   110  106  112 1   
   111  106  113 1   
   112  107  108 1   
   113  107  109 1   
   114  114  115 1   
   115  114  125 1   
   116  115  116 1   
   117  115  118 1   
   118  115  126 1   
   119  116  117 2   
   120  116  134 1   
   121  118  119 1   
   122  118  127 1   
   123  118  128 1   
   124  119  120 ar  
   125  119  121 ar  
   126  120  122 ar  
   127  120  129 1   
   128  121  123 ar  
   129  121  130 1   
   130  122  124 ar  
   131  122  131 1   
   132  123  124 ar  
   133  123  132 1   
   134  124  133 1   
   135  134  135 1   
   136  134  140 1   
   137  135  136 1   
   138  135  138 1   
   139  135  141 1   
   140  136  137 2   
   141  136  148 1   
   142  138  139 1   
   143  138  142 1   
   144  138  143 1   
   145  139  140 1   
   146  139  144 1   
   147  139  145 1   
   148  140  146 1   
   149  140  147 1   
   150  148  149 1   
   151  148  157 1   
   152  149  150 1   
   153  149  152 1   
   154  149  158 1   
   155  150  151 2   
   156  150  163 1   
   157  152  153 1   
   158  152  159 1   
   159  152  160 1   
   160  153  154 1   
   161  153  161 1   
   162  153  162 1   
   163  154  155 1   
   164  154  156 1   
   165  163  164 1   
   166  163  168 1   
   167  164  165 1   
   168  164  166 1   
   169  164  167 1   
   170  170  171 1   
   171  170  172 1   
   172  173  174 1   
   173  173  175 1   
   174  176  177 1   
   175  176  178 1   
   176  179  180 1   
   177  179  181 1   
@<TRIPOS>SUBSTRUCTURE
     1 MOL         1 TEMP              0 ****  ****    0 ROOT
