@<TRIPOS>MOLECULE
MOL
  192   187     1     0     0
SMALL
resp


@<TRIPOS>ATOM
      1 C1         -0.9860    8.9350    1.2300 c3        1 MOL     -0.381819
      2 C2         -1.4870    7.4930    1.2320 c         1 MOL      0.733735
      3 O1         -1.9240    7.0340    2.2330 o         1 MOL     -0.599591
      4 H1         -1.2310    9.4020    0.2760 hc        1 MOL      0.092364
      5 H2         -1.4640    9.4880    2.0380 hc        1 MOL      0.092364
      6 H3          0.0950    8.9450    1.3720 hc        1 MOL      0.092364
      7 N1         -1.3610    6.7180    0.1570 n         1 MOL     -0.545373
      8 C3         -1.8030    5.2610    0.0520 c3        1 MOL      0.114925
      9 C4         -0.5800    4.2020    0.1320 c         1 MOL      0.358650
     10 O2         -0.9510    3.0260    0.0700 o         1 MOL     -0.511564
     11 C5         -2.4810    5.1860   -1.2740 c3        1 MOL     -0.163925
     12 C6         -1.5970    5.6410   -2.4360 c         1 MOL      0.691388
     13 O3         -1.0000    4.7800   -3.1580 o         1 MOL     -0.704495
     14 O4         -1.4770    6.8730   -2.6980 o         1 MOL     -0.704495
     15 H4         -1.0250    7.1560   -0.6820 hn        1 MOL      0.262956
     16 H5         -2.5230    4.8900    0.7810 h1        1 MOL      0.103944
     17 H6         -3.3360    5.8570   -1.1940 hc        1 MOL      0.052455
     18 H7         -2.9160    4.2210   -1.5300 hc        1 MOL      0.052455
     19 N2          0.6940    4.5680    0.1840 n         1 MOL     -0.220081
     20 C7          1.8390    3.7640   -0.0140 c3        1 MOL      0.159352
     21 C8          2.6080    3.4330    1.2610 c         1 MOL      0.473282
     22 O5          2.9350    4.3840    2.0010 o         1 MOL     -0.551590
     23 C9          2.7180    4.4570   -1.0260 c3        1 MOL     -0.097717
     24 C10         2.3320    3.9790   -2.4390 c3        1 MOL      0.122395
     25 C11         2.8450    4.8180   -3.6880 c3        1 MOL     -0.316778
     26 C12         2.3500    6.3150   -3.6420 c3        1 MOL      0.115692
     27 N3          1.1540    6.5000   -4.4490 n4        1 MOL     -0.374463
     28 H8          0.8820    5.5480    0.3030 hn        1 MOL      0.199093
     29 H9          1.5890    2.7440   -0.3300 h1        1 MOL      0.063745
     30 H10         3.7460    4.2150   -0.7780 hc        1 MOL      0.035948
     31 H11         2.5820    5.5230   -0.8540 hc        1 MOL      0.035948
     32 H12         1.2510    3.9580   -2.5210 hc        1 MOL      0.017615
     33 H13         2.7160    2.9680   -2.5860 hc        1 MOL      0.017615
     34 H14         2.5200    4.3820   -4.6270 hc        1 MOL      0.105379
     35 H15         3.9330    4.8290   -3.6590 hc        1 MOL      0.105379
     36 H16         3.0650    7.0520   -4.0070 hx        1 MOL      0.051128
     37 H17         2.1490    6.5430   -2.6040 hx        1 MOL      0.051128
     38 H18         1.3470    6.0450   -5.3300 hn        1 MOL      0.311811
     39 H19         0.4730    5.9550   -3.9420 hn        1 MOL      0.311811
     40 H20         0.8310    7.4440   -4.6230 hn        1 MOL      0.311811
     41 N4          2.8880    2.1710    1.6220 n         1 MOL     -0.467515
     42 C13         2.5970    0.8620    1.0360 c3        1 MOL      0.594277
     43 C14         2.5590    0.6820   -0.5180 c         1 MOL      0.072352
     44 O6          1.5540    0.3590   -1.1180 o         1 MOL     -0.484844
     45 C15         1.2920    0.3430    1.6070 c3        1 MOL     -0.012746
     46 C16         1.3050    0.3420    3.1520 c         1 MOL      0.655401
     47 O7          1.6050   -0.6890    3.7950 o         1 MOL     -0.779515
     48 O8          0.8330    1.3400    3.7360 o         1 MOL     -0.779515
     49 H21         3.3940    2.0390    2.4900 hn        1 MOL      0.284194
     50 H22         3.3970    0.1890    1.3520 h1        1 MOL     -0.048504
     51 H23         1.0630   -0.6610    1.2700 hc        1 MOL     -0.012694
     52 H24         0.4320    0.9430    1.3110 hc        1 MOL     -0.012694
     53 N5          3.6680    0.8190   -1.2720 n         1 MOL     -0.287200
     54 C17         4.9550    1.0800   -0.7980 c3        1 MOL      0.137966
     55 C18         5.9630    1.4330   -1.8290 c         1 MOL      0.564776
     56 O9          5.6030    1.7320   -2.9580 o         1 MOL     -0.571819
     57 H25         3.5690    0.8430   -2.2730 hn        1 MOL      0.276979
     58 H26         5.2650    0.1280   -0.3520 h1        1 MOL     -0.013498
     59 H27         5.0320    1.8010    0.0190 h1        1 MOL     -0.013498
     60 N6          7.2240    1.5340   -1.4350 n         1 MOL     -0.506533
     61 C19         7.7980    0.8790   -0.2470 c3        1 MOL     -0.092136
     62 C20         8.2830   -0.5970   -0.5380 c         1 MOL      0.642712
     63 O10         8.3730   -0.9720   -1.6980 o         1 MOL     -0.510485
     64 C21         9.1090    1.6130    0.1220 c3        1 MOL     -0.024717
     65 C22         9.0970    3.1250   -0.0380 c         1 MOL      0.664655
     66 O11         8.2170    3.7580    0.6560 o         1 MOL     -0.634757
     67 O12        10.0470    3.7380   -0.6080 o         1 MOL     -0.634757
     68 H28         7.8050    1.8950   -2.1810 hn        1 MOL      0.334424
     69 H29         7.0700    0.9850    0.5490 h1        1 MOL      0.063370
     70 H30         9.9610    1.2640   -0.4490 hc        1 MOL      0.004925
     71 H31         9.3850    1.3950    1.1560 hc        1 MOL      0.004925
     72 N7          8.4700   -1.3740    0.5130 n         1 MOL     -0.506158
     73 C23         8.8600   -2.8190    0.4360 c3        1 MOL     -0.186250
     74 C24         7.6880   -3.7560    0.1640 c         1 MOL      0.596402
     75 O13         7.9360   -4.8760   -0.2900 o         1 MOL     -0.571824
     76 H32         8.2680   -1.0470    1.4460 hn        1 MOL      0.315561
     77 H33         9.3570   -3.1920    1.3300 h1        1 MOL      0.136071
     78 H34         9.5010   -2.9080   -0.4390 h1        1 MOL      0.136071
     79 N8          6.4410   -3.3560    0.3790 n         1 MOL     -0.438374
     80 C25         5.3010   -4.1700    0.1500 c3        1 MOL     -0.153104
     81 C26         4.1720   -3.3180   -0.3180 c         1 MOL      0.740428
     82 O14         3.9140   -2.2020    0.1850 o         1 MOL     -0.564826
     83 C27         5.0160   -5.0630    1.3500 c3        1 MOL      0.302108
     84 C28         4.0080   -6.1460    1.0360 c3        1 MOL     -0.454380
     85 O15         4.5560   -4.3960    2.4770 oh        1 MOL     -0.573764
     86 H35         6.2470   -2.4530    0.7990 hn        1 MOL      0.261874
     87 H36         5.5230   -4.8580   -0.6630 h1        1 MOL      0.129424
     88 H37         5.9530   -5.5070    1.6710 h1        1 MOL      0.041802
     89 H38         5.1530   -4.5590    3.2120 ho        1 MOL      0.392949
     90 H39         4.3330   -6.7150    0.1640 hc        1 MOL      0.123434
     91 H40         4.0380   -6.7740    1.9290 hc        1 MOL      0.123434
     92 H41         3.0780   -5.6090    0.8350 hc        1 MOL      0.123434
     93 N9          3.4200   -3.9460   -1.2480 n         1 MOL     -0.453145
     94 C29         2.1360   -3.4650   -1.7650 c3        1 MOL     -0.128461
     95 C30         1.0080   -4.4320   -1.2540 c         1 MOL      0.430423
     96 O16         1.0350   -5.6780   -1.3900 o         1 MOL     -0.505824
     97 C31         2.2550   -3.3980   -3.2680 c3        1 MOL      0.121891
     98 C32         3.3360   -2.3650   -3.7010 c3        1 MOL     -0.095417
     99 C33         0.8140   -3.1380   -3.8980 c3        1 MOL     -0.223060
    100 C34         3.5890   -2.2480   -5.2090 c3        1 MOL     -0.092992
    101 H42         3.8530   -4.7640   -1.6600 hn        1 MOL      0.277897
    102 H43         1.8260   -2.4880   -1.3900 h1        1 MOL      0.134270
    103 H44         2.5550   -4.3460   -3.7060 hc        1 MOL      0.030824
    104 H45         4.2550   -2.5730   -3.1600 hc        1 MOL      0.048893
    105 H46         2.9810   -1.4020   -3.3410 hc        1 MOL      0.048893
    106 H47         0.4000   -2.1900   -3.5870 hc        1 MOL      0.068672
    107 H48         0.9030   -3.0380   -4.9670 hc        1 MOL      0.068672
    108 H49         0.1980   -4.0130   -3.6730 hc        1 MOL      0.068672
    109 H50         3.9760   -3.1650   -5.6560 hc        1 MOL      0.031976
    110 H51         2.6680   -2.0010   -5.7270 hc        1 MOL      0.031976
    111 H52         4.2710   -1.4710   -5.5510 hc        1 MOL      0.031976
    112 N10        -0.1860   -3.8980   -0.8150 n         1 MOL     -0.121762
    113 C35        -1.3850   -4.6140   -0.2900 c3        1 MOL     -0.276604
    114 C36        -2.5730   -4.3850   -1.1220 c         1 MOL      0.335356
    115 O17        -3.5170   -5.2930   -1.1330 o         1 MOL     -0.497096
    116 C37        -1.6600   -4.4560    1.1840 c3        1 MOL      0.433920
    117 C38        -2.0560   -2.9980    1.4270 c3        1 MOL      0.034788
    118 O18        -0.5510   -4.7980    1.9550 oh        1 MOL     -0.665570
    119 H53        -0.1900   -2.8820   -0.7990 hn        1 MOL      0.182999
    120 H54        -1.1880   -5.6840   -0.4010 h1        1 MOL      0.161056
    121 H55        -2.5580   -5.0130    1.4660 h1        1 MOL      0.038238
    122 H56         0.2540   -4.3810    1.6400 ho        1 MOL      0.380658
    123 H57        -2.6980   -2.8190    2.2850 hc        1 MOL     -0.042459
    124 H58        -1.1300   -2.4500    1.5920 hc        1 MOL     -0.042459
    125 H59        -2.5810   -2.5420    0.5890 hc        1 MOL     -0.042459
    126 N11        -2.5720   -3.2720   -1.8010 n         1 MOL      0.015928
    127 C39        -3.6480   -2.5570   -2.5030 c3        1 MOL     -0.324893
    128 C40        -5.0510   -2.6760   -1.8530 c         1 MOL      0.611064
    129 O19        -5.7350   -3.7260   -1.8500 o         1 MOL     -0.490094
    130 C41        -3.6970   -2.8870   -4.0260 c3        1 MOL      0.235888
    131 C42        -3.4690   -4.3460   -4.3960 c3        1 MOL     -0.240277
    132 O20        -2.7190   -2.0830   -4.7550 oh        1 MOL     -0.614722
    133 H60        -1.7480   -2.7280   -1.6110 hn        1 MOL      0.189347
    134 H61        -3.3500   -1.5000   -2.4870 h1        1 MOL      0.129702
    135 H62        -4.7120   -2.6960   -4.3720 h1        1 MOL      0.045753
    136 H63        -3.1320   -1.4900   -5.3830 ho        1 MOL      0.400824
    137 H64        -2.4200   -4.6160   -4.3060 hc        1 MOL      0.080179
    138 H65        -4.0330   -4.9790   -3.6990 hc        1 MOL      0.080179
    139 H66        -3.8190   -4.5410   -5.4080 hc        1 MOL      0.080179
    140 N12        -5.6080   -1.5280   -1.5200 n         1 MOL     -0.509833
    141 C43        -7.0190   -1.4270   -1.0710 c3        1 MOL      0.002282
    142 C44        -7.2990   -0.7660    0.2230 c         1 MOL      0.743286
    143 O21        -8.4080   -0.9000    0.7070 o         1 MOL     -0.615762
    144 C45        -7.8520   -0.8300   -2.2360 c3        1 MOL     -0.106205
    145 C46        -9.3150   -1.0990   -2.0320 c3        1 MOL      0.019748
    146 C47       -10.3100   -1.0460   -3.2710 c3        1 MOL     -0.082757
    147 C48       -11.7590   -1.2140   -2.8020 c3        1 MOL      0.099427
    148 N13       -12.6300   -1.3920   -3.9630 n4        1 MOL     -0.246108
    149 H67        -4.9610   -0.7510   -1.5720 hn        1 MOL      0.280539
    150 H68        -7.3270   -2.4580   -0.8810 h1        1 MOL      0.102730
    151 H69        -7.4680   -1.2790   -3.1550 hc        1 MOL      0.057580
    152 H70        -7.6360    0.2220   -2.4150 hc        1 MOL      0.057580
    153 H71        -9.6920   -0.3820   -1.3060 hc        1 MOL      0.037820
    154 H72        -9.4360   -2.0410   -1.4880 hc        1 MOL      0.037820
    155 H73        -9.9880   -1.8020   -3.9980 hc        1 MOL      0.035483
    156 H74       -10.2230   -0.0460   -3.6990 hc        1 MOL      0.035483
    157 H75       -12.0860   -0.3940   -2.1590 hx        1 MOL      0.061137
    158 H76       -11.7320   -2.1120   -2.1790 hx        1 MOL      0.061137
    159 H77       -13.5950   -1.6280   -3.7320 hn        1 MOL      0.238015
    160 H78       -12.6380   -0.5990   -4.5810 hn        1 MOL      0.238015
    161 H79       -12.2890   -2.1930   -4.4770 hn        1 MOL      0.238015
    162 N14        -6.3660   -0.0040    0.7140 n         1 MOL     -0.659129
    163 C49        -6.4970    0.6020    2.0870 c3        1 MOL     -0.000768
    164 C50        -7.4210    1.8690    2.1400 c         1 MOL      0.576990
    165 O22        -7.1600    2.8290    1.4580 o         1 MOL     -0.513641
    166 C51        -5.1040    0.9240    2.7220 c3        1 MOL     -0.326173
    167 C52        -4.3210   -0.3660    3.0310 c3        1 MOL      0.239948
    168 C53        -3.0950   -0.3300    3.9400 c         1 MOL      0.541292
    169 O23        -2.1710    0.5470    3.8410 o         1 MOL     -0.701884
    170 O24        -3.0140   -1.1390    4.8810 o         1 MOL     -0.701884
    171 H80        -5.6310    0.3050    0.0800 hn        1 MOL      0.410845
    172 H81        -7.0050   -0.0380    2.8120 h1        1 MOL      0.075481
    173 H82        -5.2760    1.3940    3.6870 hc        1 MOL      0.114047
    174 H83        -4.5060    1.5520    2.0630 hc        1 MOL      0.114047
    175 H84        -3.9810   -0.8750    2.1240 hc        1 MOL     -0.017098
    176 H85        -4.9160   -1.0730    3.5980 hc        1 MOL     -0.017098
    177 N15        -8.5320    1.8760    2.9250 n         1 MOL     -0.375389
    178 C54        -9.5200    2.9450    3.1410 c3        1 MOL     -0.071119
    179 H86        -9.3970    3.7120    2.3770 h1        1 MOL      0.072647
    180 H87       -10.5260    2.5290    3.0790 h1        1 MOL      0.072647
    181 H88        -9.3680    3.3860    4.1270 h1        1 MOL      0.072647
    182 H89        -8.7170    1.0050    3.4150 hn        1 MOL      0.257974
    183 Ca1        -0.4140   -0.1540    5.4740 Ca        1 MOL      1.745314
    184 O25         1.5650   -1.6300    6.6950 oh        1 MOL     -0.855084
    185 H90         2.3760   -2.1150    6.4940 ho        1 MOL      0.423941
    186 H91         1.2340   -2.0430    7.4950 ho        1 MOL      0.423941
    187 O26        -0.4140   -2.6380    4.1650 oh        1 MOL     -0.855084
    188 H92        -0.9360   -3.2990    3.7070 ho        1 MOL      0.423941
    189 H93         0.4730   -2.7500    3.8130 ho        1 MOL      0.423941
    190 O27        -1.6470   -1.5550    7.7390 oh        1 MOL     -0.855084
    191 H94        -0.9910   -2.0990    8.1880 ho        1 MOL      0.423941
    192 H95        -2.4730   -1.7710    8.1680 ho        1 MOL      0.423941
@<TRIPOS>BOND
     1    1    2 1   
     2    1    4 1   
     3    1    5 1   
     4    1    6 1   
     5    2    3 2   
     6    2    7 1   
     7    7    8 1   
     8    7   15 1   
     9    8    9 1   
    10    8   11 1   
    11    8   16 1   
    12    9   10 2   
    13    9   19 1   
    14   11   12 1   
    15   11   17 1   
    16   11   18 1   
    17   12   13 1   
    18   12   14 1   
    19   19   20 1   
    20   19   28 1   
    21   20   21 1   
    22   20   23 1   
    23   20   29 1   
    24   21   22 2   
    25   21   41 1   
    26   23   24 1   
    27   23   30 1   
    28   23   31 1   
    29   24   25 1   
    30   24   32 1   
    31   24   33 1   
    32   25   26 1   
    33   25   34 1   
    34   25   35 1   
    35   26   27 1   
    36   26   36 1   
    37   26   37 1   
    38   27   38 1   
    39   27   39 1   
    40   27   40 1   
    41   41   42 1   
    42   41   49 1   
    43   42   43 1   
    44   42   45 1   
    45   42   50 1   
    46   43   44 2   
    47   43   53 1   
    48   45   46 1   
    49   45   51 1   
    50   45   52 1   
    51   46   47 1   
    52   46   48 1   
    53   53   54 1   
    54   53   57 1   
    55   54   55 1   
    56   54   58 1   
    57   54   59 1   
    58   55   56 2   
    59   55   60 1   
    60   60   61 1   
    61   60   68 1   
    62   61   62 1   
    63   61   64 1   
    64   61   69 1   
    65   62   63 2   
    66   62   72 1   
    67   64   65 1   
    68   64   70 1   
    69   64   71 1   
    70   65   66 1   
    71   65   67 1   
    72   72   73 1   
    73   72   76 1   
    74   73   74 1   
    75   73   77 1   
    76   73   78 1   
    77   74   75 2   
    78   74   79 1   
    79   79   80 1   
    80   79   86 1   
    81   80   81 1   
    82   80   83 1   
    83   80   87 1   
    84   81   82 2   
    85   81   93 1   
    86   83   84 1   
    87   83   85 1   
    88   83   88 1   
    89   84   90 1   
    90   84   91 1   
    91   84   92 1   
    92   85   89 1   
    93   93   94 1   
    94   93  101 1   
    95   94   95 1   
    96   94   97 1   
    97   94  102 1   
    98   95   96 2   
    99   95  112 1   
   100   97   98 1   
   101   97   99 1   
   102   97  103 1   
   103   98  100 1   
   104   98  104 1   
   105   98  105 1   
   106   99  106 1   
   107   99  107 1   
   108   99  108 1   
   109  100  109 1   
   110  100  110 1   
   111  100  111 1   
   112  112  113 1   
   113  112  119 1   
   114  113  114 1   
   115  113  116 1   
   116  113  120 1   
   117  114  115 2   
   118  114  126 1   
   119  116  117 1   
   120  116  118 1   
   121  116  121 1   
   122  117  123 1   
   123  117  124 1   
   124  117  125 1   
   125  118  122 1   
   126  126  127 1   
   127  126  133 1   
   128  127  128 1   
   129  127  130 1   
   130  127  134 1   
   131  128  129 2   
   132  128  140 1   
   133  130  131 1   
   134  130  132 1   
   135  130  135 1   
   136  131  137 1   
   137  131  138 1   
   138  131  139 1   
   139  132  136 1   
   140  140  141 1   
   141  140  149 1   
   142  141  142 1   
   143  141  144 1   
   144  141  150 1   
   145  142  143 2   
   146  142  162 1   
   147  144  145 1   
   148  144  151 1   
   149  144  152 1   
   150  145  146 1   
   151  145  153 1   
   152  145  154 1   
   153  146  147 1   
   154  146  155 1   
   155  146  156 1   
   156  147  148 1   
   157  147  157 1   
   158  147  158 1   
   159  148  159 1   
   160  148  160 1   
   161  148  161 1   
   162  162  163 1   
   163  162  171 1   
   164  163  164 1   
   165  163  166 1   
   166  163  172 1   
   167  164  165 2   
   168  164  177 1   
   169  166  167 1   
   170  166  173 1   
   171  166  174 1   
   172  167  168 1   
   173  167  175 1   
   174  167  176 1   
   175  168  169 1   
   176  168  170 1   
   177  177  178 1   
   178  177  182 1   
   179  178  179 1   
   180  178  180 1   
   181  178  181 1   
   182  184  185 1   
   183  184  186 1   
   184  187  188 1   
   185  187  189 1   
   186  190  191 1   
   187  190  192 1   
@<TRIPOS>SUBSTRUCTURE
     1 MOL         1 TEMP              0 ****  ****    0 ROOT
