@<TRIPOS>MOLECULE
MOL
  185   180     1     0     0
SMALL
resp


@<TRIPOS>ATOM
      1 C1          6.5920    0.6720    4.9930 c3        1 MOL     -0.187258
      2 C2          6.9360    1.1710    3.5690 c         1 MOL      0.674115
      3 O1          6.0530    1.3900    2.7160 o         1 MOL     -0.558202
      4 H1          5.7730   -0.0450    4.9390 hc        1 MOL      0.045826
      5 H2          7.4670    0.1900    5.4310 hc        1 MOL      0.045826
      6 H3          6.2940    1.5180    5.6120 hc        1 MOL      0.045826
      7 N1          8.2480    1.2610    3.2370 n         1 MOL     -0.570867
      8 C3          8.8080    1.6270    1.9040 c3        1 MOL     -0.064979
      9 C4          8.3850    0.7260    0.7230 c         1 MOL      0.582261
     10 O2          8.3130    1.2280   -0.4160 o         1 MOL     -0.554445
     11 C5          8.5190    3.1270    1.6290 c3        1 MOL     -0.383601
     12 C6          8.7520    4.0670    2.7680 c         1 MOL      0.792870
     13 O3          8.1400    5.1400    2.7880 o         1 MOL     -0.686342
     14 O4          9.6890    3.7960    3.5820 o         1 MOL     -0.686342
     15 H4          8.8780    0.9790    3.9740 hn        1 MOL      0.323233
     16 H5          9.8870    1.5430    2.0400 h1        1 MOL      0.109400
     17 H6          7.4630    3.2010    1.3920 hc        1 MOL      0.166740
     18 H7          9.2690    3.5140    0.9330 hc        1 MOL      0.166740
     19 N2          8.1160   -0.5660    0.8550 n         1 MOL     -0.332612
     20 C7          7.5630   -1.4640   -0.1860 c3        1 MOL     -0.016297
     21 C8          6.2790   -2.1560    0.2330 c         1 MOL      0.696233
     22 O5          6.2600   -2.9180    1.1940 o         1 MOL     -0.561759
     23 C9          8.5380   -2.5940   -0.5140 c3        1 MOL     -0.271543
     24 C10         9.9550   -2.1430   -0.8900 c3        1 MOL      0.250201
     25 C11        10.9610   -3.2560   -0.6530 c3        1 MOL     -0.046088
     26 C12        12.3770   -2.5780   -0.8460 c3        1 MOL      0.039102
     27 N3         13.3940   -3.6340   -1.0640 n4        1 MOL     -0.232660
     28 H8          8.0810   -0.9720    1.7770 hn        1 MOL      0.214908
     29 H9          7.4390   -0.8830   -1.0980 h1        1 MOL      0.078399
     30 H10         8.1330   -3.1780   -1.3400 hc        1 MOL      0.079719
     31 H11         8.5810   -3.2740    0.3380 hc        1 MOL      0.079719
     32 H12        10.2780   -1.3150   -0.2610 hc        1 MOL     -0.037910
     33 H13         9.9830   -1.8970   -1.9480 hc        1 MOL     -0.037910
     34 H14        10.7690   -4.0890   -1.3220 hc        1 MOL      0.017293
     35 H15        10.8160   -3.6550    0.3540 hc        1 MOL      0.017293
     36 H16        12.4780   -1.9930    0.0620 hx        1 MOL      0.071347
     37 H17        12.3280   -1.8620   -1.6640 hx        1 MOL      0.071347
     38 H18        14.3360   -3.2810   -1.0060 hn        1 MOL      0.246588
     39 H19        13.2930   -4.3760   -0.3890 hn        1 MOL      0.246588
     40 H20        13.2680   -4.1000   -1.9560 hn        1 MOL      0.246588
     41 N4          5.2270   -1.8590   -0.5210 n         1 MOL     -0.659204
     42 C13         3.8090   -2.3250   -0.3980 c3        1 MOL      0.144457
     43 C14         3.2500   -3.1980   -1.5330 c         1 MOL      0.572207
     44 O6          3.6830   -2.9970   -2.6790 o         1 MOL     -0.508242
     45 C15         2.9020   -1.0480   -0.2750 c3        1 MOL      0.071941
     46 C16         1.5050   -1.5020    0.0700 c         1 MOL      0.388155
     47 O7          1.2210   -1.9310    1.2250 o         1 MOL     -0.658582
     48 O8          0.6090   -1.4340   -0.7550 o         1 MOL     -0.658582
     49 H21         5.4980   -1.0790   -1.1030 hn        1 MOL      0.325957
     50 H22         3.6830   -2.8310    0.5620 h1        1 MOL      0.028949
     51 H23         2.8660   -0.5380   -1.2380 hc        1 MOL      0.050479
     52 H24         3.1960   -0.4010    0.5490 hc        1 MOL      0.050479
     53 N5          2.2320   -4.0500   -1.2030 n         1 MOL     -0.485913
     54 C17         1.5970   -4.9110   -2.1530 c3        1 MOL     -0.217852
     55 C18         0.6370   -4.2480   -3.1950 c         1 MOL      0.494759
     56 O9          0.3730   -4.9420   -4.2030 o         1 MOL     -0.539651
     57 H25         1.9630   -4.1990   -0.2360 hn        1 MOL      0.358245
     58 H26         1.0490   -5.6540   -1.5820 h1        1 MOL      0.142099
     59 H27         2.3660   -5.3790   -2.7660 h1        1 MOL      0.142099
     60 N6          0.0090   -3.1190   -2.8590 n         1 MOL     -0.392200
     61 C19        -0.8620   -2.2250   -3.7180 c3        1 MOL      0.211756
     62 C20        -0.1800   -0.9520   -4.1460 c         1 MOL      0.317256
     63 O10        -0.7870   -0.0540   -4.7070 o         1 MOL     -0.513405
     64 C21        -2.4180   -2.1540   -3.4930 c3        1 MOL     -0.338981
     65 C22        -2.8120   -1.3520   -2.2210 c         1 MOL      0.683044
     66 N7         -3.5660   -0.2940   -2.3400 n         1 MOL     -0.586987
     67 O11        -2.3180   -1.6350   -1.1160 o         1 MOL     -0.697842
     68 H28         0.3200   -2.6660   -2.0200 hn        1 MOL      0.300121
     69 H29        -0.7390   -2.8110   -4.6350 h1        1 MOL      0.075331
     70 H30        -2.8320   -3.1610   -3.4750 hc        1 MOL      0.118602
     71 H31        -2.8400   -1.7350   -4.4090 hc        1 MOL      0.118602
     72 H32        -4.0530   -0.0620   -3.1930 hn        1 MOL      0.301023
     73 H33        -3.8050    0.2110   -1.5010 hn        1 MOL      0.301023
     74 N8          1.0470   -0.6910   -3.7540 n         1 MOL     -0.077177
     75 C23         1.7190    0.6370   -3.9770 c3        1 MOL     -0.437535
     76 C24         1.3390    1.6810   -2.9420 c         1 MOL      0.639027
     77 O12         1.5840    2.8430   -3.2760 o         1 MOL     -0.560341
     78 H34         1.6020   -1.4150   -3.3210 hn        1 MOL      0.141185
     79 H35         1.4440    1.0320   -4.9590 h1        1 MOL      0.182611
     80 H36         2.7950    0.5380   -3.8070 h1        1 MOL      0.182611
     81 N9          0.7720    1.3600   -1.7910 n         1 MOL     -0.363695
     82 C25         0.2420    2.3640   -0.8330 c3        1 MOL      0.029099
     83 C26        -0.9290    1.8710   -0.0040 c         1 MOL      0.348336
     84 O13        -1.0540    0.6300    0.1750 o         1 MOL     -0.359565
     85 C27         1.3890    2.6770    0.1760 c3        1 MOL     -0.155007
     86 C28         2.6550    3.3530   -0.3650 ca        1 MOL      0.073746
     87 C29         3.8990    2.7750   -0.1000 ca        1 MOL     -0.180032
     88 C30         2.6560    4.6290   -0.9080 ca        1 MOL     -0.180032
     89 C31         5.0960    3.4750   -0.3590 ca        1 MOL     -0.147126
     90 C32         3.8570    5.2850   -1.2080 ca        1 MOL     -0.147126
     91 C33         5.1000    4.7440   -0.9250 ca        1 MOL      0.288929
     92 O14         6.2650    5.3880   -1.2850 oh        1 MOL     -0.515118
     93 H37         0.5520    0.4000   -1.5980 hn        1 MOL      0.294897
     94 H38        -0.1160    3.3020   -1.2500 h1        1 MOL      0.060953
     95 H39         1.7350    1.7910    0.7210 hc        1 MOL      0.069155
     96 H40         0.9750    3.3420    0.9340 hc        1 MOL      0.069155
     97 H41         3.9470    1.8070    0.3910 ha        1 MOL      0.115386
     98 H42         1.7440    5.1660   -1.1440 ha        1 MOL      0.115386
     99 H43         6.0520    3.0940   -0.0320 ha        1 MOL      0.079878
    100 H44         3.8900    6.2480   -1.7010 ha        1 MOL      0.079878
    101 H45         6.0670    6.1560   -1.8300 ho        1 MOL      0.393829
    102 N10        -1.7780    2.8000    0.4950 n         1 MOL     -0.339309
    103 C34        -3.0900    2.5290    0.9860 c3        1 MOL      0.015284
    104 C35        -4.1340    2.3180   -0.1290 c         1 MOL      0.392966
    105 O15        -4.7250    1.2570   -0.1820 o         1 MOL     -0.358290
    106 C36        -3.5170    3.7040    1.9280 c3        1 MOL     -0.026941
    107 C37        -2.6330    3.7550    3.2130 c3        1 MOL     -0.106154
    108 C38        -5.0230    3.7270    2.3020 c3        1 MOL     -0.276160
    109 C39        -2.5720    2.4450    4.0140 c3        1 MOL     -0.313461
    110 H46        -1.6110    3.8000    0.4820 hn        1 MOL      0.298434
    111 H47        -3.0630    1.6240    1.5930 h1        1 MOL      0.033851
    112 H48        -3.3540    4.6060    1.3340 hc        1 MOL      0.009599
    113 H49        -3.1720    4.4900    3.8190 hc        1 MOL      0.077612
    114 H50        -1.6320    4.1330    3.0240 hc        1 MOL      0.077612
    115 H51        -5.3800    4.7140    2.6220 hc        1 MOL      0.091230
    116 H52        -5.6640    3.3480    1.5070 hc        1 MOL      0.091230
    117 H53        -5.1730    3.1470    3.2140 hc        1 MOL      0.091230
    118 H54        -1.9660    2.5210    4.9160 hc        1 MOL      0.100825
    119 H55        -3.4740    2.2680    4.6100 hc        1 MOL      0.100825
    120 H56        -2.3860    1.5190    3.4620 hc        1 MOL      0.100825
    121 N11        -4.1780    3.2300   -1.1090 n         1 MOL     -0.302602
    122 C40        -5.0150    3.0320   -2.3600 c3        1 MOL     -0.079491
    123 C41        -6.5210    3.1820   -2.2240 c         1 MOL      0.340863
    124 O16        -7.2210    2.8320   -3.1760 o         1 MOL     -0.450520
    125 C42        -4.3930    3.8870   -3.4610 c3        1 MOL      0.268752
    126 O17        -3.1340    3.4660   -3.8240 oh        1 MOL     -0.592184
    127 H57        -3.4850    3.9670   -1.0350 hn        1 MOL      0.234463
    128 H58        -4.7940    2.0120   -2.6720 h1        1 MOL      0.163651
    129 H59        -4.4440    4.9540   -3.2440 h1        1 MOL      0.001744
    130 H60        -5.0840    3.8080   -4.3030 h1        1 MOL      0.001744
    131 H61        -2.7570    4.1830   -4.3410 ho        1 MOL      0.414615
    132 N12        -7.1000    3.5420   -1.1010 n         1 MOL     -0.238502
    133 C43        -8.4610    3.1800   -0.7460 c3        1 MOL      0.301632
    134 C44        -8.6830    1.6320   -0.7660 c         1 MOL      0.366055
    135 O18        -9.8060    1.1770   -0.9800 o         1 MOL     -0.523694
    136 C45        -9.4700    4.0510   -1.4500 c3        1 MOL     -0.450034
    137 H62        -6.5980    3.9900   -0.3430 hn        1 MOL      0.179445
    138 H63        -8.6170    3.5300    0.2760 h1        1 MOL      0.030495
    139 H64        -8.9850    5.0250   -1.5320 hc        1 MOL      0.126391
    140 H65        -9.6030    3.5810   -2.4320 hc        1 MOL      0.126391
    141 H66       -10.3840    4.1950   -0.8810 hc        1 MOL      0.126391
    142 N13        -7.7010    0.7760   -0.5730 n         1 MOL     -0.387598
    143 C46        -7.8540   -0.7190   -0.4600 c3        1 MOL      0.610625
    144 C47        -7.4080   -1.3190    0.8850 c         1 MOL      0.121462
    145 O19        -6.5790   -0.7530    1.6330 o         1 MOL     -0.412612
    146 C48        -7.0580   -1.3550   -1.6020 c3        1 MOL     -0.256057
    147 H67        -6.7570    1.1160   -0.4680 hn        1 MOL      0.055018
    148 H68        -8.8910   -0.9630   -0.6570 h1        1 MOL     -0.040293
    149 H69        -5.9660   -1.3850   -1.5030 hc        1 MOL      0.057449
    150 H70        -7.5040   -2.3510   -1.6720 hc        1 MOL      0.057449
    151 H71        -7.2760   -0.8990   -2.5720 hc        1 MOL      0.057449
    152 N14        -7.9450   -2.5310    1.1730 n         1 MOL     -0.328333
    153 C49        -7.6140   -3.3010    2.3900 c3        1 MOL     -0.146750
    154 C50        -8.0040   -2.6000    3.7070 c         1 MOL      0.540585
    155 O20        -7.5270   -2.8440    4.7980 o         1 MOL     -0.520876
    156 C51        -6.1620   -3.7670    2.3630 c3        1 MOL      0.235498
    157 C52        -5.4290   -3.9980    1.0620 c3        1 MOL      0.040660
    158 C53        -3.9540   -4.3760    1.3070 c         1 MOL      0.647441
    159 O21        -3.5690   -5.4920    0.8230 o         1 MOL     -0.711177
    160 O22        -3.2310   -3.6150    1.9230 o         1 MOL     -0.711177
    161 H72        -8.6900   -2.9130    0.6170 hn        1 MOL      0.281120
    162 H73        -8.2740   -4.1660    2.4060 h1        1 MOL      0.089120
    163 H74        -6.0980   -4.6990    2.9350 hc        1 MOL     -0.046753
    164 H75        -5.5500   -3.0270    2.8750 hc        1 MOL     -0.046753
    165 H76        -5.4040   -3.0770    0.4770 hc        1 MOL     -0.056817
    166 H77        -5.9360   -4.7600    0.4700 hc        1 MOL     -0.056817
    167 N15        -9.0730   -1.8100    3.6540 n         1 MOL     -0.288579
    168 C54        -9.5170   -0.8450    4.6500 c3        1 MOL     -0.184700
    169 H78       -10.1250   -1.3520    5.4010 h1        1 MOL      0.097603
    170 H79        -8.6490   -0.3940    5.1310 h1        1 MOL      0.097603
    171 H80       -10.1100   -0.0690    4.1670 h1        1 MOL      0.097603
    172 H81        -9.5370   -1.6980    2.7550 hn        1 MOL      0.209818
    173 Ca1        -1.3460   -1.8100    1.2200 Ca        1 MOL      1.738081
    174 O23        -0.8910   -0.3060    3.3900 oh        1 MOL     -0.802330
    175 H82        -0.2230    0.3700    3.3990 ho        1 MOL      0.400428
    176 H83        -1.3290   -0.2140    4.2380 ho        1 MOL      0.400428
    177 O24        -0.2700   -3.1330    3.3530 oh        1 MOL     -0.802330
    178 H84        -0.4140   -4.0630    3.5320 ho        1 MOL      0.400428
    179 H85        -0.1930   -2.7330    4.2210 ho        1 MOL      0.400428
    180 O25        -1.0190   -4.2270    0.1680 oh        1 MOL     -0.802330
    181 H86        -1.9120   -4.3720   -0.1210 ho        1 MOL      0.400428
    182 H87        -0.6830   -5.1030    0.3820 ho        1 MOL      0.400428
    183 O26        -3.7100   -0.5470    1.9950 oh        1 MOL     -0.802330
    184 H88        -4.3300   -0.0430    1.4610 ho        1 MOL      0.400428
    185 H89        -4.1630   -0.6810    2.8210 ho        1 MOL      0.400428
@<TRIPOS>BOND
     1    1    2 1   
     2    1    4 1   
     3    1    5 1   
     4    1    6 1   
     5    2    3 2   
     6    2    7 1   
     7    7    8 1   
     8    7   15 1   
     9    8    9 1   
    10    8   11 1   
    11    8   16 1   
    12    9   10 2   
    13    9   19 1   
    14   11   12 1   
    15   11   17 1   
    16   11   18 1   
    17   12   13 1   
    18   12   14 1   
    19   19   20 1   
    20   19   28 1   
    21   20   21 1   
    22   20   23 1   
    23   20   29 1   
    24   21   22 2   
    25   21   41 1   
    26   23   24 1   
    27   23   30 1   
    28   23   31 1   
    29   24   25 1   
    30   24   32 1   
    31   24   33 1   
    32   25   26 1   
    33   25   34 1   
    34   25   35 1   
    35   26   27 1   
    36   26   36 1   
    37   26   37 1   
    38   27   38 1   
    39   27   39 1   
    40   27   40 1   
    41   41   42 1   
    42   41   49 1   
    43   42   43 1   
    44   42   45 1   
    45   42   50 1   
    46   43   44 2   
    47   43   53 1   
    48   45   46 1   
    49   45   51 1   
    50   45   52 1   
    51   46   47 1   
    52   46   48 1   
    53   53   54 1   
    54   53   57 1   
    55   54   55 1   
    56   54   58 1   
    57   54   59 1   
    58   55   56 2   
    59   55   60 1   
    60   60   61 1   
    61   60   68 1   
    62   61   62 1   
    63   61   64 1   
    64   61   69 1   
    65   62   63 2   
    66   62   74 1   
    67   64   65 1   
    68   64   70 1   
    69   64   71 1   
    70   65   66 1   
    71   65   67 2   
    72   66   72 1   
    73   66   73 1   
    74   74   75 1   
    75   74   78 1   
    76   75   76 1   
    77   75   79 1   
    78   75   80 1   
    79   76   77 2   
    80   76   81 1   
    81   81   82 1   
    82   81   93 1   
    83   82   83 1   
    84   82   85 1   
    85   82   94 1   
    86   83   84 2   
    87   83  102 1   
    88   85   86 1   
    89   85   95 1   
    90   85   96 1   
    91   86   87 ar  
    92   86   88 ar  
    93   87   89 ar  
    94   87   97 1   
    95   88   90 ar  
    96   88   98 1   
    97   89   91 ar  
    98   89   99 1   
    99   90   91 ar  
   100   90  100 1   
   101   91   92 1   
   102   92  101 1   
   103  102  103 1   
   104  102  110 1   
   105  103  104 1   
   106  103  106 1   
   107  103  111 1   
   108  104  105 2   
   109  104  121 1   
   110  106  107 1   
   111  106  108 1   
   112  106  112 1   
   113  107  109 1   
   114  107  113 1   
   115  107  114 1   
   116  108  115 1   
   117  108  116 1   
   118  108  117 1   
   119  109  118 1   
   120  109  119 1   
   121  109  120 1   
   122  121  122 1   
   123  121  127 1   
   124  122  123 1   
   125  122  125 1   
   126  122  128 1   
   127  123  124 2   
   128  123  132 1   
   129  125  126 1   
   130  125  129 1   
   131  125  130 1   
   132  126  131 1   
   133  132  133 1   
   134  132  137 1   
   135  133  134 1   
   136  133  136 1   
   137  133  138 1   
   138  134  135 2   
   139  134  142 1   
   140  136  139 1   
   141  136  140 1   
   142  136  141 1   
   143  142  143 1   
   144  142  147 1   
   145  143  144 1   
   146  143  146 1   
   147  143  148 1   
   148  144  145 2   
   149  144  152 1   
   150  146  149 1   
   151  146  150 1   
   152  146  151 1   
   153  152  153 1   
   154  152  161 1   
   155  153  154 1   
   156  153  156 1   
   157  153  162 1   
   158  154  155 2   
   159  154  167 1   
   160  156  157 1   
   161  156  163 1   
   162  156  164 1   
   163  157  158 1   
   164  157  165 1   
   165  157  166 1   
   166  158  159 1   
   167  158  160 1   
   168  167  168 1   
   169  167  172 1   
   170  168  169 1   
   171  168  170 1   
   172  168  171 1   
   173  174  175 1   
   174  174  176 1   
   175  177  178 1   
   176  177  179 1   
   177  180  181 1   
   178  180  182 1   
   179  183  184 1   
   180  183  185 1   
@<TRIPOS>SUBSTRUCTURE
     1 MOL         1 TEMP              0 ****  ****    0 ROOT
