@<TRIPOS>MOLECULE
MOL
  198   191     1     0     0
SMALL
resp


@<TRIPOS>ATOM
      1 C1         -5.6310   -2.0750    6.2080 c3        1 MOL     -0.388214
      2 C2         -5.2060   -1.7870    4.7130 c         1 MOL      0.701332
      3 O1         -5.0060   -2.7230    3.9410 o         1 MOL     -0.570828
      4 H1         -5.5010   -3.1350    6.4240 hc        1 MOL      0.097626
      5 H2         -5.0090   -1.4880    6.8830 hc        1 MOL      0.097626
      6 H3         -6.6770   -1.8030    6.3480 hc        1 MOL      0.097626
      7 N1         -5.0570   -0.4930    4.4040 n         1 MOL     -0.539700
      8 C3         -4.8480    0.0070    3.0560 c3        1 MOL      0.526903
      9 C4         -3.3600   -0.0300    2.5260 c         1 MOL     -0.071769
     10 O2         -3.0470    0.5000    1.4460 o         1 MOL     -0.163012
     11 C5         -5.4920    1.4300    2.8220 c3        1 MOL     -0.173849
     12 C6         -6.9260    1.7010    3.2400 c         1 MOL      0.681278
     13 O3         -7.7000    1.8960    2.2750 o         1 MOL     -0.691928
     14 O4         -7.3120    1.6020    4.4150 o         1 MOL     -0.691928
     15 H4         -5.0840    0.1620    5.1630 hn        1 MOL      0.241029
     16 H5         -5.3660   -0.6110    2.3230 h1        1 MOL     -0.002993
     17 H6         -5.4510    1.4300    1.7260 hc        1 MOL     -0.031183
     18 H7         -4.7700    2.1790    3.1280 hc        1 MOL     -0.031183
     19 N2         -2.3920   -0.5910    3.2370 n         1 MOL     -0.116356
     20 C7         -0.9070   -0.5780    3.0540 c3        1 MOL      0.047328
     21 C8         -0.4820   -1.9600    2.4130 c         1 MOL      0.512537
     22 O5         -0.7590   -2.9580    3.0520 o         1 MOL     -0.500181
     23 C9         -0.2970   -0.3750    4.4320 c3        1 MOL     -0.454771
     24 C10        -0.2420    1.1260    4.8070 c3        1 MOL      0.166552
     25 C11         0.4820    1.2930    6.1480 c3        1 MOL     -0.120652
     26 C12         0.7790    2.8100    6.3300 c3        1 MOL     -0.007325
     27 N3          1.9580    3.2010    5.5790 n4        1 MOL     -0.266887
     28 H8         -2.7020   -0.9920    4.1120 hn        1 MOL      0.166344
     29 H9         -0.6190    0.1900    2.3360 h1        1 MOL     -0.005528
     30 H10         0.6560   -0.8540    4.6480 hc        1 MOL      0.158644
     31 H11        -0.9110   -0.8530    5.1810 hc        1 MOL      0.158644
     32 H12        -1.2050    1.6150    4.9570 hc        1 MOL      0.028079
     33 H13         0.3060    1.6910    4.0530 hc        1 MOL      0.028079
     34 H14         1.3750    0.6760    6.2080 hc        1 MOL      0.062265
     35 H15        -0.1550    0.9350    6.9530 hc        1 MOL      0.062265
     36 H16         1.0180    2.9610    7.3830 hx        1 MOL      0.088603
     37 H17        -0.0850    3.4390    6.1020 hx        1 MOL      0.088603
     38 H18         1.9010    3.2180    4.5640 hn        1 MOL      0.311081
     39 H19         2.2860    4.1200    5.8310 hn        1 MOL      0.311081
     40 H20         2.7040    2.5230    5.7200 hn        1 MOL      0.311081
     41 N4          0.3190   -2.1010    1.2760 n         1 MOL     -0.329894
     42 C13         1.0730   -1.0680    0.5440 c3        1 MOL     -0.343340
     43 C14         1.7760   -0.0060    1.4590 c         1 MOL      0.578766
     44 O6          1.3390    1.1480    1.4740 o         1 MOL     -0.530412
     45 C15         0.2460   -0.4010   -0.5450 c3        1 MOL     -0.261623
     46 C16        -0.3890   -1.3950   -1.5580 c         1 MOL      0.789292
     47 O7         -0.0750   -2.6070   -1.5070 o         1 MOL     -0.746930
     48 O8         -1.2320   -0.9400   -2.2720 o         1 MOL     -0.746930
     49 H21         0.4270   -3.0070    0.8310 hn        1 MOL      0.206820
     50 H22         1.8610   -1.6300    0.0300 h1        1 MOL      0.105414
     51 H23         0.9430    0.3220   -0.9710 hc        1 MOL      0.114643
     52 H24        -0.5610    0.2300   -0.1780 hc        1 MOL      0.114643
     53 N5          2.8130   -0.3910    2.1940 n         1 MOL     -0.410988
     54 C17         3.5540   -1.6480    2.1520 c3        1 MOL      0.280894
     55 C18         4.9380   -1.5570    2.7140 c         1 MOL      0.349864
     56 O9          5.1860   -0.5680    3.4080 o         1 MOL     -0.526507
     57 H25         3.1720    0.3560    2.7700 hn        1 MOL      0.228009
     58 H26         3.6400   -2.0950    1.1590 h1        1 MOL      0.040073
     59 H27         2.9780   -2.3420    2.7670 h1        1 MOL      0.040073
     60 N6          5.8720   -2.5130    2.5800 n         1 MOL     -0.345407
     61 C19         5.7610   -3.6760    1.7210 c3        1 MOL      0.096972
     62 C20         5.8600   -3.3100    0.2580 c         1 MOL      0.339884
     63 O10         4.9450   -3.5020   -0.5410 o         1 MOL     -0.516813
     64 C21         6.7200   -4.8060    2.1340 c3        1 MOL     -0.134605
     65 C22         8.1110   -4.3710    2.5850 c         1 MOL      0.568246
     66 O11         8.6440   -3.4070    1.9600 o         1 MOL     -0.629298
     67 O12         8.5550   -4.9050    3.6630 o         1 MOL     -0.629298
     68 H28         6.8020   -2.1320    2.7170 hn        1 MOL      0.287306
     69 H29         4.7040   -3.9040    1.8220 h1        1 MOL     -0.004321
     70 H30         6.7270   -5.5020    1.2990 hc        1 MOL      0.038559
     71 H31         6.2480   -5.3780    2.9250 hc        1 MOL      0.038559
     72 N7          6.9370   -2.6140   -0.1170 n         1 MOL     -0.014266
     73 C23         7.3860   -2.4180   -1.4730 c3        1 MOL     -0.351553
     74 C24         6.7580   -1.2070   -2.2350 c         1 MOL      0.684293
     75 O13         7.2140   -0.8120   -3.2950 o         1 MOL     -0.577891
     76 H32         7.5820   -2.4970    0.6550 hn        1 MOL      0.162339
     77 H33         7.0640   -3.3080   -2.0100 h1        1 MOL      0.137950
     78 H34         8.4620   -2.3390   -1.3560 h1        1 MOL      0.137950
     79 N8          5.7230   -0.5980   -1.6510 n         1 MOL     -0.408981
     80 C25         4.9440    0.6220   -2.0980 c3        1 MOL      0.144385
     81 C26         5.0650    1.7240   -1.0320 c         1 MOL      0.521596
     82 O14         4.9710    1.4810    0.1550 o         1 MOL     -0.496756
     83 C27         3.5190    0.3360   -2.5460 c3        1 MOL      0.479791
     84 C28         3.2330   -0.7890   -3.5340 c3        1 MOL     -0.545196
     85 O15         2.8580    1.5720   -3.0590 oh        1 MOL     -0.728968
     86 H35         5.4490   -0.9800   -0.7580 hn        1 MOL      0.102247
     87 H36         5.4350    1.1270   -2.9350 h1        1 MOL      0.024683
     88 H37         3.0290    0.0770   -1.6070 h1        1 MOL      0.027223
     89 H38         1.9190    1.4020   -3.1580 ho        1 MOL      0.462569
     90 H39         3.4640   -0.3660   -4.5090 hc        1 MOL      0.124618
     91 H40         3.8340   -1.6580   -3.2900 hc        1 MOL      0.124618
     92 H41         2.1470   -0.8970   -3.5010 hc        1 MOL      0.124618
     93 N9          5.0810    2.9790   -1.4930 n         1 MOL     -0.514269
     94 C29         5.1900    4.1480   -0.5630 c3        1 MOL     -0.145299
     95 C30         3.8950    4.9790   -0.5160 c         1 MOL      0.374537
     96 O16         3.8850    6.0510    0.1030 o         1 MOL     -0.541422
     97 C31         6.4520    4.9640   -0.6940 c3        1 MOL      0.157272
     98 C32         6.5270    5.6720   -2.0810 c3        1 MOL      0.330775
     99 C33         7.6360    4.0270   -0.4990 c3        1 MOL     -0.168689
    100 C34         7.6760    6.5910   -2.3690 c3        1 MOL     -0.209706
    101 H42         4.8990    3.1940   -2.4530 hn        1 MOL      0.328094
    102 H43         5.1990    3.7550    0.4530 h1        1 MOL      0.158450
    103 H44         6.5560    5.7220    0.0830 hc        1 MOL      0.013905
    104 H45         5.6620    6.3290   -2.1050 hc        1 MOL     -0.088502
    105 H46         6.4130    4.9180   -2.8500 hc        1 MOL     -0.088502
    106 H47         7.4480    3.3840    0.3630 hc        1 MOL      0.036412
    107 H48         7.9050    3.4350   -1.3700 hc        1 MOL      0.036412
    108 H49         8.5440    4.5920   -0.3060 hc        1 MOL      0.036412
    109 H50         8.5260    5.9590   -2.6350 hc        1 MOL      0.034782
    110 H51         7.3330    7.1910   -3.2010 hc        1 MOL      0.034782
    111 H52         7.8630    7.1510   -1.4510 hc        1 MOL      0.034782
    112 N10         2.8090    4.4830   -1.1250 n         1 MOL     -0.144224
    113 C35         1.4580    5.0740   -0.8640 c3        1 MOL     -0.012843
    114 C36         0.3940    3.9670   -0.7310 c         1 MOL      0.466406
    115 O17         0.3560    3.1140   -1.5140 o         1 MOL     -0.446736
    116 C37         1.0330    6.0140   -2.0630 c3        1 MOL      0.291103
    117 C38         2.1810    6.8920   -2.5150 c3        1 MOL     -0.291443
    118 O18         0.0660    7.0080   -1.7110 oh        1 MOL     -0.624977
    119 H53         2.7870    3.6040   -1.6280 hn        1 MOL      0.159181
    120 H54         1.3570    5.6480    0.0530 h1        1 MOL      0.086197
    121 H55         0.7420    5.3440   -2.8800 h1        1 MOL      0.017789
    122 H56        -0.6050    7.0210   -2.3970 ho        1 MOL      0.398082
    123 H57         2.5610    7.5100   -1.6990 hc        1 MOL      0.081446
    124 H58         3.0500    6.3450   -2.8790 hc        1 MOL      0.081446
    125 H59         1.8200    7.5680   -3.2900 hc        1 MOL      0.081446
    126 N11        -0.6220    4.2350    0.1040 n         1 MOL     -0.569928
    127 C39        -1.7370    3.2860    0.3380 c3        1 MOL      0.055693
    128 C40        -2.6010    3.0680   -0.9410 c         1 MOL      0.380854
    129 O19        -2.5700    3.7730   -1.9280 o         1 MOL     -0.515316
    130 C41        -2.6670    3.6320    1.4570 c3        1 MOL      0.486286
    131 C42        -3.3870    4.9290    1.1150 c3        1 MOL     -0.214750
    132 O20        -2.0590    3.6230    2.6920 oh        1 MOL     -0.695873
    133 H60        -0.6650    5.1650    0.4900 hn        1 MOL      0.324093
    134 H61        -1.2820    2.3280    0.6120 h1        1 MOL      0.173425
    135 H62        -3.3530    2.7850    1.4760 h1        1 MOL     -0.048401
    136 H63        -2.7690    3.5030    3.3270 ho        1 MOL      0.405791
    137 H64        -4.0180    5.2670    1.9400 hc        1 MOL      0.043119
    138 H65        -2.6900    5.7510    0.9550 hc        1 MOL      0.043119
    139 H66        -4.0380    4.8530    0.2390 hc        1 MOL      0.043119
    140 N12        -3.5330    2.0950   -0.9430 n         1 MOL     -0.035729
    141 C43        -4.4590    1.7000   -1.9790 c3        1 MOL     -0.045194
    142 C44        -4.9010    0.2200   -1.9770 c         1 MOL      0.536031
    143 O21        -5.7840   -0.2410   -2.7180 o         1 MOL     -0.648833
    144 C45        -5.7060    2.6230   -1.9530 c3        1 MOL     -0.230112
    145 C46        -6.7230    2.4380   -3.1210 c3        1 MOL     -0.259560
    146 C47        -7.8600    3.4450   -3.3170 c3        1 MOL      0.378368
    147 C48        -9.0050    2.9620   -4.1340 c3        1 MOL     -0.246841
    148 N13        -8.5590    2.4900   -5.4780 n4        1 MOL     -0.340185
    149 H67        -3.5080    1.5090   -0.1180 hn        1 MOL     -0.154129
    150 H68        -3.9960    1.8010   -2.9540 h1        1 MOL      0.096128
    151 H69        -5.2720    3.6250   -1.9040 hc        1 MOL      0.140620
    152 H70        -6.2990    2.5170   -1.0360 hc        1 MOL      0.140620
    153 H71        -7.3290    1.5520   -2.9320 hc        1 MOL      0.101875
    154 H72        -6.1000    2.3190   -4.0000 hc        1 MOL      0.101875
    155 H73        -7.4120    4.3300   -3.7760 hc        1 MOL     -0.062485
    156 H74        -8.2570    3.9090   -2.4110 hc        1 MOL     -0.062485
    157 H75        -9.7830    3.7160   -4.3020 hx        1 MOL      0.164098
    158 H76        -9.5030    2.1720   -3.5830 hx        1 MOL      0.164098
    159 H77        -8.0150    1.6440   -5.4310 hn        1 MOL      0.316625
    160 H78        -9.3960    2.3380   -6.0160 hn        1 MOL      0.316625
    161 H79        -7.9420    3.1300   -5.9720 hn        1 MOL      0.316625
    162 N14        -4.3470   -0.6040   -1.0890 n         1 MOL      0.011749
    163 C49        -4.5510   -2.0620   -1.0470 c3        1 MOL     -0.248427
    164 C50        -6.0250   -2.4390   -0.7170 c         1 MOL      0.449752
    165 O22        -6.6900   -1.7050    0.0690 o         1 MOL     -0.484569
    166 C51        -3.6980   -2.5230    0.1600 c3        1 MOL      0.317950
    167 C52        -3.5270   -4.0820    0.4060 c3        1 MOL     -0.791307
    168 C53        -3.2880   -4.8980   -0.9000 c         1 MOL      0.915980
    169 O23        -4.2340   -5.1220   -1.7060 o         1 MOL     -0.764980
    170 O24        -2.1240   -5.2120   -1.1920 o         1 MOL     -0.764980
    171 H80        -3.6670   -0.2470   -0.4330 hn        1 MOL      0.071741
    172 H81        -4.1830   -2.4720   -1.9790 h1        1 MOL      0.045011
    173 H82        -4.2220   -2.0860    1.0080 hc        1 MOL      0.065801
    174 H83        -2.7410   -2.0060    0.2000 hc        1 MOL      0.065801
    175 H84        -4.3260   -4.5990    0.9420 hc        1 MOL      0.191890
    176 H85        -2.6620   -4.1700    1.0730 hc        1 MOL      0.191890
    177 N15        -6.5440   -3.4850   -1.3980 n         1 MOL     -0.306299
    178 C54        -7.9520   -4.1440   -1.2890 c3        1 MOL     -0.007309
    179 H86        -7.8590   -5.1190   -0.8080 h1        1 MOL      0.050233
    180 H87        -8.6070   -3.5070   -0.6950 h1        1 MOL      0.050233
    181 H88        -8.3730   -4.2700   -2.2860 h1        1 MOL      0.050233
    182 H89        -5.8790   -3.9340   -2.0110 hn        1 MOL      0.302695
    183 Ca1         0.1730   -5.0180   -2.3260 Ca        1 MOL      1.804790
    184 O25         2.7890   -4.6300   -2.1860 oh        1 MOL     -0.867308
    185 H90         3.5170   -4.3470   -1.6220 ho        1 MOL      0.424305
    186 H91         3.1060   -4.4960   -3.0800 ho        1 MOL      0.424305
    187 O26        -1.2540   -7.0340   -3.3210 oh        1 MOL     -0.867308
    188 H92        -0.8600   -7.3870   -4.1260 ho        1 MOL      0.424305
    189 H93        -2.1540   -7.3500   -3.3390 ho        1 MOL      0.424305
    190 O27         1.3560   -6.6900   -4.3280 oh        1 MOL     -0.867308
    191 H94         0.7150   -7.0420   -4.9550 ho        1 MOL      0.424305
    192 H95         2.1150   -6.4580   -4.8510 ho        1 MOL      0.424305
    193 O28         0.7430   -4.0330   -4.4980 oh        1 MOL     -0.867308
    194 H96         1.3760   -3.9660   -5.2110 ho        1 MOL      0.424305
    195 H97         0.0260   -3.4400   -4.7660 ho        1 MOL      0.424305
    196 O29        -1.8680   -3.5620   -3.4640 oh        1 MOL     -0.867308
    197 H98        -2.7730   -3.8710   -3.4010 ho        1 MOL      0.424305
    198 H99        -1.9070   -2.6600   -3.1470 ho        1 MOL      0.424305
@<TRIPOS>BOND
     1    1    2 1   
     2    1    4 1   
     3    1    5 1   
     4    1    6 1   
     5    2    3 2   
     6    2    7 1   
     7    7    8 1   
     8    7   15 1   
     9    8    9 1   
    10    8   11 1   
    11    8   16 1   
    12    9   10 2   
    13    9   19 1   
    14   11   12 1   
    15   11   17 1   
    16   11   18 1   
    17   12   13 1   
    18   12   14 1   
    19   19   20 1   
    20   19   28 1   
    21   20   21 1   
    22   20   23 1   
    23   20   29 1   
    24   21   22 2   
    25   21   41 1   
    26   23   24 1   
    27   23   30 1   
    28   23   31 1   
    29   24   25 1   
    30   24   32 1   
    31   24   33 1   
    32   25   26 1   
    33   25   34 1   
    34   25   35 1   
    35   26   27 1   
    36   26   36 1   
    37   26   37 1   
    38   27   38 1   
    39   27   39 1   
    40   27   40 1   
    41   41   42 1   
    42   41   49 1   
    43   42   43 1   
    44   42   45 1   
    45   42   50 1   
    46   43   44 2   
    47   43   53 1   
    48   45   46 1   
    49   45   51 1   
    50   45   52 1   
    51   46   47 1   
    52   46   48 1   
    53   53   54 1   
    54   53   57 1   
    55   54   55 1   
    56   54   58 1   
    57   54   59 1   
    58   55   56 2   
    59   55   60 1   
    60   60   61 1   
    61   60   68 1   
    62   61   62 1   
    63   61   64 1   
    64   61   69 1   
    65   62   63 2   
    66   62   72 1   
    67   64   65 1   
    68   64   70 1   
    69   64   71 1   
    70   65   66 1   
    71   65   67 1   
    72   72   73 1   
    73   72   76 1   
    74   73   74 1   
    75   73   77 1   
    76   73   78 1   
    77   74   75 2   
    78   74   79 1   
    79   79   80 1   
    80   79   86 1   
    81   80   81 1   
    82   80   83 1   
    83   80   87 1   
    84   81   82 2   
    85   81   93 1   
    86   83   84 1   
    87   83   85 1   
    88   83   88 1   
    89   84   90 1   
    90   84   91 1   
    91   84   92 1   
    92   85   89 1   
    93   93   94 1   
    94   93  101 1   
    95   94   95 1   
    96   94   97 1   
    97   94  102 1   
    98   95   96 2   
    99   95  112 1   
   100   97   98 1   
   101   97   99 1   
   102   97  103 1   
   103   98  100 1   
   104   98  104 1   
   105   98  105 1   
   106   99  106 1   
   107   99  107 1   
   108   99  108 1   
   109  100  109 1   
   110  100  110 1   
   111  100  111 1   
   112  112  113 1   
   113  112  119 1   
   114  113  114 1   
   115  113  116 1   
   116  113  120 1   
   117  114  115 2   
   118  114  126 1   
   119  116  117 1   
   120  116  118 1   
   121  116  121 1   
   122  117  123 1   
   123  117  124 1   
   124  117  125 1   
   125  118  122 1   
   126  126  127 1   
   127  126  133 1   
   128  127  128 1   
   129  127  130 1   
   130  127  134 1   
   131  128  129 2   
   132  128  140 1   
   133  130  131 1   
   134  130  132 1   
   135  130  135 1   
   136  131  137 1   
   137  131  138 1   
   138  131  139 1   
   139  132  136 1   
   140  140  141 1   
   141  140  149 1   
   142  141  142 1   
   143  141  144 1   
   144  141  150 1   
   145  142  143 2   
   146  142  162 1   
   147  144  145 1   
   148  144  151 1   
   149  144  152 1   
   150  145  146 1   
   151  145  153 1   
   152  145  154 1   
   153  146  147 1   
   154  146  155 1   
   155  146  156 1   
   156  147  148 1   
   157  147  157 1   
   158  147  158 1   
   159  148  159 1   
   160  148  160 1   
   161  148  161 1   
   162  162  163 1   
   163  162  171 1   
   164  163  164 1   
   165  163  166 1   
   166  163  172 1   
   167  164  165 2   
   168  164  177 1   
   169  166  167 1   
   170  166  173 1   
   171  166  174 1   
   172  167  168 1   
   173  167  175 1   
   174  167  176 1   
   175  168  169 1   
   176  168  170 1   
   177  177  178 1   
   178  177  182 1   
   179  178  179 1   
   180  178  180 1   
   181  178  181 1   
   182  184  185 1   
   183  184  186 1   
   184  187  188 1   
   185  187  189 1   
   186  190  191 1   
   187  190  192 1   
   188  193  194 1   
   189  193  195 1   
   190  196  197 1   
   191  196  198 1   
@<TRIPOS>SUBSTRUCTURE
     1 MOL         1 TEMP              0 ****  ****    0 ROOT
