@<TRIPOS>MOLECULE
MOL
  181   177     1     0     0
SMALL
resp


@<TRIPOS>ATOM
      1 C1          9.6450    6.9390   -1.0890 c3        1 MOL     -0.307046
      2 C2          8.6140    5.9000   -0.7750 c         1 MOL      0.619238
      3 O1          7.6000    6.1810   -0.0930 o         1 MOL     -0.558140
      4 H1         10.1130    7.2770   -0.1650 hc        1 MOL      0.082496
      5 H2         10.4040    6.5120   -1.7440 hc        1 MOL      0.082496
      6 H3          9.1700    7.7850   -1.5860 hc        1 MOL      0.082496
      7 N1          8.7490    4.5950   -1.1600 n         1 MOL     -0.575063
      8 C3          9.9210    3.9650   -1.8700 c3        1 MOL      0.262130
      9 C4         10.9790    3.4360   -0.9860 c         1 MOL      0.511804
     10 O2         12.1600    3.6380   -1.2020 o         1 MOL     -0.598527
     11 C5          9.4370    2.8480   -2.8860 c3        1 MOL     -0.395728
     12 C6          8.6420    1.6710   -2.3360 c         1 MOL      0.896472
     13 O3          8.2850    0.7530   -3.1230 o         1 MOL     -0.802567
     14 O4          8.2320    1.6200   -1.1520 o         1 MOL     -0.802567
     15 H4          8.0620    3.9560   -0.8080 hn        1 MOL      0.340403
     16 H5         10.5220    4.6300   -2.4970 h1        1 MOL      0.019317
     17 H6         10.2680    2.4580   -3.4710 hc        1 MOL      0.087391
     18 H7          8.7690    3.3390   -3.5890 hc        1 MOL      0.087391
     19 N2         10.5480    2.8380    0.1250 n         1 MOL     -0.447692
     20 C7         11.5440    2.3000    1.1770 c3        1 MOL      0.385091
     21 C8         10.9260    1.0380    1.8390 c         1 MOL      0.402680
     22 O5         11.4090    0.6770    2.9180 o         1 MOL     -0.562932
     23 C9         12.0200    3.4170    2.1290 c3        1 MOL     -0.341734
     24 H8          9.5550    2.8560    0.3190 hn        1 MOL      0.292592
     25 H9         12.4220    1.8710    0.6840 h1        1 MOL     -0.000129
     26 H10        12.7900    2.9570    2.7530 hc        1 MOL      0.087830
     27 H11        12.4590    4.2740    1.6300 hc        1 MOL      0.087830
     28 H12        11.1650    3.7020    2.7390 hc        1 MOL      0.087830
     29 N3          9.9320    0.3830    1.2710 n         1 MOL     -0.294074
     30 C10         9.1350   -0.6590    1.9170 c3        1 MOL      0.159383
     31 C11         8.6610   -1.6700    0.8510 c         1 MOL      0.352307
     32 O6          8.5940   -1.3460   -0.3400 o         1 MOL     -0.440066
     33 C12         7.9550    0.0120    2.5980 c3        1 MOL     -0.175243
     34 C13         7.3200    1.0310    1.7540 c         1 MOL      0.732016
     35 O7          6.5790    0.6820    0.8370 o         1 MOL     -0.682655
     36 O8          7.4450    2.2350    2.0570 o         1 MOL     -0.682655
     37 H13         9.5750    0.7620    0.3960 hn        1 MOL      0.085583
     38 H14         9.7480   -1.2520    2.6060 h1        1 MOL      0.027870
     39 H15         8.3620    0.4340    3.5160 hc        1 MOL      0.038403
     40 H16         7.2480   -0.7700    2.8870 hc        1 MOL      0.038403
     41 N4          8.2780   -2.9030    1.1340 n         1 MOL     -0.368970
     42 C14         7.5300   -3.7180    0.1850 c3        1 MOL     -0.144481
     43 C15         6.1050   -3.2750   -0.1950 c         1 MOL      0.706068
     44 O9          5.7410   -2.1510    0.0810 o         1 MOL     -0.469114
     45 H17         8.3290   -3.1780    2.1070 hn        1 MOL      0.289425
     46 H18         7.4010   -4.7050    0.6180 h1        1 MOL      0.077835
     47 H19         8.0650   -3.8250   -0.7570 h1        1 MOL      0.077835
     48 N5          5.2670   -4.1580   -0.7440 n         1 MOL     -0.659158
     49 C16         3.8540   -3.9810   -1.1940 c3        1 MOL      0.119360
     50 C17         2.7860   -3.8840   -0.0830 c         1 MOL      0.599733
     51 O10         3.0820   -4.1950    1.0450 o         1 MOL     -0.466675
     52 C18         3.5550   -4.9870   -2.3890 c3        1 MOL     -0.053623
     53 C19         4.6200   -5.0070   -3.4630 c         1 MOL      0.611761
     54 N6          5.1490   -6.1810   -3.8760 n         1 MOL     -0.805225
     55 O11         5.0020   -3.9770   -3.9380 o         1 MOL     -0.538399
     56 H20         5.6250   -5.0890   -0.9100 hn        1 MOL      0.292611
     57 H21         3.9920   -2.9940   -1.6470 h1        1 MOL     -0.084238
     58 H22         2.5470   -4.7700   -2.7620 hc        1 MOL      0.043885
     59 H23         3.3420   -5.9870   -2.0210 hc        1 MOL      0.043885
     60 H24         5.0350   -7.1020   -3.4820 hn        1 MOL      0.373126
     61 H25         5.7790   -6.0890   -4.6610 hn        1 MOL      0.373126
     62 N7          1.5690   -3.3590   -0.4370 n         1 MOL     -0.614880
     63 C20         0.6530   -2.8750    0.5940 c3        1 MOL      0.108938
     64 C21         1.2490   -1.8090    1.5250 c         1 MOL      0.435062
     65 O12         2.0330   -0.9220    1.1580 o         1 MOL     -0.513842
     66 H26         1.3820   -3.1750   -1.4050 hn        1 MOL      0.358047
     67 H27         0.3550   -3.7160    1.2110 h1        1 MOL      0.087793
     68 H28        -0.2230   -2.4960    0.0640 h1        1 MOL      0.087793
     69 N8          0.9230   -1.7120    2.7870 n         1 MOL     -0.359963
     70 C22        -0.1770   -2.4370    3.5460 c3        1 MOL      0.002422
     71 C23        -1.5730   -2.2090    2.8950 c         1 MOL      0.228606
     72 O13        -2.2590   -3.1490    2.5500 o         1 MOL     -0.488929
     73 C24        -0.1510   -2.3500    5.0830 c3        1 MOL      0.303021
     74 C25         1.1550   -2.8740    5.7440 c3        1 MOL     -0.461433
     75 O14        -0.0810   -1.0070    5.3530 oh        1 MOL     -0.613467
     76 H29         1.2940   -0.9010    3.2750 hn        1 MOL      0.318241
     77 H30         0.0020   -3.5070    3.4780 h1        1 MOL      0.079660
     78 H31        -1.1180   -2.6500    5.4780 h1        1 MOL      0.042508
     79 H32        -0.6560   -0.7690    6.0850 ho        1 MOL      0.405622
     80 H33         1.3380   -2.4250    6.7220 hc        1 MOL      0.122558
     81 H34         0.9870   -3.9340    5.9060 hc        1 MOL      0.122558
     82 H35         2.0160   -2.8630    5.0780 hc        1 MOL      0.122558
     83 N9         -1.9660   -0.9450    2.8460 n         1 MOL     -0.222804
     84 C26        -3.2790   -0.4130    2.4250 c3        1 MOL      0.432393
     85 C27        -3.1700    0.1000    0.9450 c         1 MOL      0.345166
     86 O15        -2.1920    0.8150    0.6590 o         1 MOL     -0.583622
     87 C28        -3.7170    0.6340    3.4660 c3        1 MOL     -0.307078
     88 C29        -3.6990    0.2090    4.9320 c3        1 MOL      0.204202
     89 C30        -5.2620    0.8930    3.2150 c3        1 MOL      0.046653
     90 C31        -4.4030   -1.0060    5.4570 c3        1 MOL     -0.270850
     91 H36        -1.3520   -0.1730    3.0840 hn        1 MOL      0.198449
     92 H37        -4.0460   -1.1840    2.4960 h1        1 MOL      0.058731
     93 H38        -3.0510    1.4650    3.2820 hc        1 MOL      0.052072
     94 H39        -4.0170    1.0620    5.5220 hc        1 MOL     -0.029022
     95 H40        -2.6570    0.1400    5.2400 hc        1 MOL     -0.029022
     96 H41        -5.3990    1.2580    2.1990 hc        1 MOL      0.031438
     97 H42        -5.7340   -0.0770    3.3420 hc        1 MOL      0.031438
     98 H43        -5.5240    1.6010    3.9930 hc        1 MOL      0.031438
     99 H44        -5.4800   -0.8890    5.4000 hc        1 MOL      0.053423
    100 H45        -4.0580   -1.8860    4.9060 hc        1 MOL      0.053423
    101 H46        -4.1400   -1.0250    6.5200 hc        1 MOL      0.053423
    102 N10        -4.1110   -0.1280    0.0440 n         1 MOL     -0.351272
    103 C32        -5.4380   -0.8170    0.1800 c3        1 MOL      0.114013
    104 C33        -6.4880   -0.2450   -0.8750 c         1 MOL      0.327064
    105 O16        -6.0580    0.4430   -1.7690 o         1 MOL     -0.490068
    106 C34        -5.2450   -2.3100    0.0200 c3        1 MOL     -0.203979
    107 C35        -4.6120   -2.7750   -1.2770 c         1 MOL      0.830526
    108 O17        -4.3380   -2.0210   -2.1890 o         1 MOL     -0.749893
    109 O18        -4.2870   -3.9730   -1.3970 o         1 MOL     -0.749893
    110 H47        -3.9250    0.3280   -0.8410 hn        1 MOL      0.314546
    111 H48        -5.8770   -0.6110    1.1570 h1        1 MOL     -0.030107
    112 H49        -6.1880   -2.8570    0.0520 hc        1 MOL      0.004940
    113 H50        -4.6950   -2.6690    0.8880 hc        1 MOL      0.004940
    114 N11        -7.7330   -0.5500   -0.6550 n         1 MOL      0.030562
    115 C36        -8.9010   -0.1230   -1.4160 c3        1 MOL      0.095864
    116 C37       -10.1310    0.0720   -0.4250 c         1 MOL     -0.018110
    117 O19       -10.1930   -0.7170    0.4400 o         1 MOL     -0.422563
    118 C38        -9.2130   -1.0970   -2.5640 c3        1 MOL     -0.351425
    119 C39        -9.2580   -2.5260   -2.2290 ca        1 MOL      0.411449
    120 C40       -10.5280   -3.0820   -1.9030 ca        1 MOL     -0.408839
    121 C41        -8.1570   -3.3260   -2.1610 ca        1 MOL     -0.408839
    122 C42       -10.6380   -4.3920   -1.3920 ca        1 MOL      0.080166
    123 C43        -8.2440   -4.6580   -1.8120 ca        1 MOL      0.080166
    124 C44        -9.5070   -5.1900   -1.3540 ca        1 MOL     -0.315976
    125 H51        -7.9320   -1.0160    0.2140 hn        1 MOL      0.196315
    126 H52        -8.5840    0.8370   -1.8120 h1        1 MOL      0.003955
    127 H53        -8.3610   -0.9890   -3.2310 hc        1 MOL      0.100465
    128 H54       -10.1510   -0.9190   -3.0810 hc        1 MOL      0.100465
    129 H55       -11.3970   -2.4700   -1.7210 ha        1 MOL      0.178706
    130 H56        -7.2200   -2.8770   -2.4630 ha        1 MOL      0.178706
    131 H57       -11.6190   -4.7370   -1.1180 ha        1 MOL      0.057835
    132 H58        -7.3410   -5.2390   -1.7190 ha        1 MOL      0.057835
    133 H59        -9.5520   -6.1380   -0.8410 ha        1 MOL      0.131823
    134 N12       -11.0210    1.0510   -0.5720 n         1 MOL      0.338883
    135 C45       -11.1570    1.9670   -1.6590 c3        1 MOL     -0.249855
    136 C46        -9.9440    2.8970   -1.7990 c         1 MOL      0.563155
    137 O20        -9.6750    3.3320   -2.9370 o         1 MOL     -0.553881
    138 C47       -12.3450    2.9660   -1.4440 c3        1 MOL     -0.248225
    139 C48       -13.1460    2.1740   -0.4160 c3        1 MOL      0.096599
    140 C49       -12.1660    1.2550    0.3410 c3        1 MOL     -0.190707
    141 H60       -11.4910    1.3250   -2.4840 h1        1 MOL      0.112789
    142 H61       -11.9680    3.9090   -1.0400 hc        1 MOL      0.104073
    143 H62       -12.8590    3.1010   -2.3970 hc        1 MOL      0.104073
    144 H63       -13.7600    2.7040    0.3180 hc        1 MOL     -0.001409
    145 H64       -13.8510    1.5960   -1.0180 hc        1 MOL     -0.001409
    146 H65       -11.7710    1.6700    1.2730 h1        1 MOL      0.082365
    147 H66       -12.7900    0.3650    0.4330 h1        1 MOL      0.082365
    148 N13        -9.2070    3.1490   -0.6940 n         1 MOL     -0.281935
    149 C50        -7.9160    3.8270   -0.6390 c3        1 MOL      0.146237
    150 C51        -7.8450    4.9400   -1.7420 c         1 MOL      0.409440
    151 O21        -8.3460    6.0330   -1.5030 o         1 MOL     -0.562468
    152 C52        -7.5910    4.4370    0.8040 c3        1 MOL     -0.348271
    153 C53        -7.3710    3.2990    1.8510 c3        1 MOL     -0.135392
    154 C54        -8.4660    3.1150    2.8930 c         1 MOL      0.690993
    155 O22        -9.3240    2.1710    2.8370 o         1 MOL     -0.696118
    156 O23        -8.5000    3.7350    3.9960 o         1 MOL     -0.696118
    157 H67        -9.6710    2.9440    0.1770 hn        1 MOL      0.214230
    158 H68        -7.0570    3.2000   -0.8790 h1        1 MOL      0.087101
    159 H69        -8.4180    5.1040    1.0640 hc        1 MOL      0.130674
    160 H70        -6.6810    5.0220    0.7060 hc        1 MOL      0.130674
    161 H71        -6.3900    3.3370    2.3310 hc        1 MOL      0.005954
    162 H72        -7.4570    2.3290    1.3590 hc        1 MOL      0.005954
    163 N14        -7.1640    4.7280   -2.8950 n         1 MOL     -0.370737
    164 C55        -6.2640    3.6310   -3.2140 c3        1 MOL      0.071111
    165 H73        -6.5510    3.1930   -4.1700 h1        1 MOL      0.020776
    166 H74        -5.2420    4.0060   -3.2790 h1        1 MOL      0.020776
    167 H75        -6.3250    2.8710   -2.4340 h1        1 MOL      0.020776
    168 H76        -7.3740    5.4390   -3.5690 hn        1 MOL      0.268736
    169 Ca1         6.3760   -0.3040   -1.6190 Ca        1 MOL      1.727979
    170 O24         5.3110    1.8970   -2.5590 oh        1 MOL     -0.809156
    171 H77         4.5740    2.3690   -2.1770 ho        1 MOL      0.401742
    172 H78         5.5160    2.3820   -3.3560 ho        1 MOL      0.401742
    173 O25         4.8070   -1.1850   -3.5230 oh        1 MOL     -0.809156
    174 H79         3.8500   -1.0980   -3.4620 ho        1 MOL      0.401742
    175 H80         4.9340   -2.0070   -4.0070 ho        1 MOL      0.401742
    176 O26         7.4180   -2.3290   -3.1500 oh        1 MOL     -0.809156
    177 H81         7.0060   -2.9880   -3.7090 ho        1 MOL      0.401742
    178 H82         8.3450   -2.5510   -3.1640 ho        1 MOL      0.401742
    179 O27         3.7380   -0.0840   -0.9100 oh        1 MOL     -0.809156
    180 H83         3.2280   -0.0880   -0.1030 ho        1 MOL      0.401742
    181 H84         3.0900   -0.1560   -1.6010 ho        1 MOL      0.401742
@<TRIPOS>BOND
     1    1    2 1   
     2    1    4 1   
     3    1    5 1   
     4    1    6 1   
     5    2    3 2   
     6    2    7 1   
     7    7    8 1   
     8    7   15 1   
     9    8    9 1   
    10    8   11 1   
    11    8   16 1   
    12    9   10 2   
    13    9   19 1   
    14   11   12 1   
    15   11   17 1   
    16   11   18 1   
    17   12   13 1   
    18   12   14 1   
    19   19   20 1   
    20   19   24 1   
    21   20   21 1   
    22   20   23 1   
    23   20   25 1   
    24   21   22 2   
    25   21   29 1   
    26   23   26 1   
    27   23   27 1   
    28   23   28 1   
    29   29   30 1   
    30   29   37 1   
    31   30   31 1   
    32   30   33 1   
    33   30   38 1   
    34   31   32 2   
    35   31   41 1   
    36   33   34 1   
    37   33   39 1   
    38   33   40 1   
    39   34   35 1   
    40   34   36 1   
    41   41   42 1   
    42   41   45 1   
    43   42   43 1   
    44   42   46 1   
    45   42   47 1   
    46   43   44 2   
    47   43   48 1   
    48   48   49 1   
    49   48   56 1   
    50   49   50 1   
    51   49   52 1   
    52   49   57 1   
    53   50   51 2   
    54   50   62 1   
    55   52   53 1   
    56   52   58 1   
    57   52   59 1   
    58   53   54 1   
    59   53   55 2   
    60   54   60 1   
    61   54   61 1   
    62   62   63 1   
    63   62   66 1   
    64   63   64 1   
    65   63   67 1   
    66   63   68 1   
    67   64   65 2   
    68   64   69 1   
    69   69   70 1   
    70   69   76 1   
    71   70   71 1   
    72   70   73 1   
    73   70   77 1   
    74   71   72 2   
    75   71   83 1   
    76   73   74 1   
    77   73   75 1   
    78   73   78 1   
    79   74   80 1   
    80   74   81 1   
    81   74   82 1   
    82   75   79 1   
    83   83   84 1   
    84   83   91 1   
    85   84   85 1   
    86   84   87 1   
    87   84   92 1   
    88   85   86 2   
    89   85  102 1   
    90   87   88 1   
    91   87   89 1   
    92   87   93 1   
    93   88   90 1   
    94   88   94 1   
    95   88   95 1   
    96   89   96 1   
    97   89   97 1   
    98   89   98 1   
    99   90   99 1   
   100   90  100 1   
   101   90  101 1   
   102  102  103 1   
   103  102  110 1   
   104  103  104 1   
   105  103  106 1   
   106  103  111 1   
   107  104  105 2   
   108  104  114 1   
   109  106  107 1   
   110  106  112 1   
   111  106  113 1   
   112  107  108 1   
   113  107  109 1   
   114  114  115 1   
   115  114  125 1   
   116  115  116 1   
   117  115  118 1   
   118  115  126 1   
   119  116  117 2   
   120  116  134 1   
   121  118  119 1   
   122  118  127 1   
   123  118  128 1   
   124  119  120 ar  
   125  119  121 ar  
   126  120  122 ar  
   127  120  129 1   
   128  121  123 ar  
   129  121  130 1   
   130  122  124 ar  
   131  122  131 1   
   132  123  124 ar  
   133  123  132 1   
   134  124  133 1   
   135  134  135 1   
   136  134  140 1   
   137  135  136 1   
   138  135  138 1   
   139  135  141 1   
   140  136  137 2   
   141  136  148 1   
   142  138  139 1   
   143  138  142 1   
   144  138  143 1   
   145  139  140 1   
   146  139  144 1   
   147  139  145 1   
   148  140  146 1   
   149  140  147 1   
   150  148  149 1   
   151  148  157 1   
   152  149  150 1   
   153  149  152 1   
   154  149  158 1   
   155  150  151 2   
   156  150  163 1   
   157  152  153 1   
   158  152  159 1   
   159  152  160 1   
   160  153  154 1   
   161  153  161 1   
   162  153  162 1   
   163  154  155 1   
   164  154  156 1   
   165  163  164 1   
   166  163  168 1   
   167  164  165 1   
   168  164  166 1   
   169  164  167 1   
   170  170  171 1   
   171  170  172 1   
   172  173  174 1   
   173  173  175 1   
   174  176  177 1   
   175  176  178 1   
   176  179  180 1   
   177  179  181 1   
@<TRIPOS>SUBSTRUCTURE
     1 MOL         1 TEMP              0 ****  ****    0 ROOT
