@<TRIPOS>MOLECULE
MOL
  178   175     1     0     0
SMALL
resp


@<TRIPOS>ATOM
      1 C1          1.6170   -0.9850    5.4450 c3        1 MOL     -0.364708
      2 C2          2.6120   -0.4160    4.4620 c         1 MOL      0.668019
      3 O1          2.3280    0.5540    3.7060 o         1 MOL     -0.548410
      4 H1          2.0790   -1.0530    6.4290 hc        1 MOL      0.090888
      5 H2          0.7440   -0.3350    5.4970 hc        1 MOL      0.090888
      6 H3          1.3110   -1.9790    5.1180 hc        1 MOL      0.090888
      7 N1          3.7790   -1.0180    4.3200 n         1 MOL     -0.514123
      8 C3          4.9580   -0.4840    3.5950 c3        1 MOL      0.119900
      9 C4          5.3750   -1.3870    2.4290 c         1 MOL      0.516665
     10 O2          6.4480   -1.2420    1.7510 o         1 MOL     -0.462266
     11 C5          6.1200   -0.4140    4.5650 c3        1 MOL     -0.127047
     12 C6          7.1600    0.5890    4.1580 c         1 MOL      0.725244
     13 O3          6.9160    1.8190    4.0880 o         1 MOL     -0.705268
     14 O4          8.3410    0.1740    4.0620 o         1 MOL     -0.705268
     15 H4          3.9050   -1.8760    4.8360 hn        1 MOL      0.265631
     16 H5          4.8180    0.5030    3.1550 h1        1 MOL      0.047484
     17 H6          6.5330   -1.4120    4.7330 hc        1 MOL     -0.000826
     18 H7          5.8260    0.0580    5.5050 hc        1 MOL     -0.000826
     19 N2          4.6360   -2.5600    2.2850 n         1 MOL     -0.361000
     20 C7          4.7870   -3.5540    1.2280 c3        1 MOL      0.096410
     21 C8          4.6750   -2.9870   -0.2060 c         1 MOL      0.381036
     22 O5          3.5890   -2.6790   -0.6350 o         1 MOL     -0.558291
     23 C9          6.0160   -4.3930    1.4870 c3        1 MOL     -0.552254
     24 H8          3.8680   -2.7060    2.9240 hn        1 MOL      0.220884
     25 H9          3.9680   -4.2500    1.3870 h1        1 MOL      0.160265
     26 H10         6.0030   -5.2030    0.7630 hc        1 MOL      0.150576
     27 H11         6.9570   -3.8340    1.5590 hc        1 MOL      0.150576
     28 H12         5.9140   -4.7830    2.4930 hc        1 MOL      0.150576
     29 N3          5.7970   -2.8380   -0.9340 n         1 MOL     -0.211469
     30 C10         5.9190   -2.2130   -2.3300 c3        1 MOL      0.078821
     31 C11         6.1600   -0.6890   -2.2240 c         1 MOL      0.648722
     32 O6          6.4330   -0.0300   -3.2500 o         1 MOL     -0.579425
     33 C12         7.0030   -2.9640   -3.1820 c3        1 MOL     -0.124874
     34 C13         8.3760   -3.1110   -2.5940 c         1 MOL      0.724669
     35 O7          9.2840   -3.2770   -3.4160 o         1 MOL     -0.710313
     36 O8          8.6290   -2.9630   -1.3500 o         1 MOL     -0.710313
     37 H13         6.6430   -3.2190   -0.5170 hn        1 MOL      0.144644
     38 H14         4.9660   -2.3780   -2.8350 h1        1 MOL      0.019910
     39 H15         7.1180   -2.4250   -4.1170 hc        1 MOL     -0.010831
     40 H16         6.5840   -3.9480   -3.3630 hc        1 MOL     -0.010831
     41 N4          6.1050   -0.0140   -1.0130 n         1 MOL     -0.386624
     42 C14         6.3350    1.4210   -0.7600 c3        1 MOL      0.093559
     43 C15         5.2420    2.4310   -1.2060 c         1 MOL      0.573535
     44 O9          5.5610    3.5190   -1.6700 o         1 MOL     -0.570508
     45 H17         5.7010   -0.4950   -0.2290 hn        1 MOL      0.209050
     46 H18         7.2070    1.8190   -1.2920 h1        1 MOL      0.043910
     47 H19         6.6580    1.6620    0.2500 h1        1 MOL      0.043910
     48 N5          3.9740    1.9840   -1.2530 n         1 MOL     -0.446428
     49 C16         2.9190    2.6810   -1.9740 c3        1 MOL     -0.168724
     50 C17         2.3590    3.9110   -1.2860 c         1 MOL      0.624722
     51 O10         2.0490    4.0180   -0.1340 o         1 MOL     -0.491236
     52 C18         1.7230    1.6940   -2.2790 c3        1 MOL     -0.325773
     53 C19         2.2270    0.4760   -3.1030 c         1 MOL      0.648857
     54 N6          2.6530    0.6560   -4.3270 n         1 MOL     -0.714073
     55 O11         2.3520   -0.6870   -2.6100 o         1 MOL     -0.648816
     56 H20         3.7770    1.1040   -0.8020 hn        1 MOL      0.337871
     57 H21         3.3440    2.9370   -2.9460 h1        1 MOL      0.125983
     58 H22         0.9230    2.2530   -2.7630 hc        1 MOL      0.168306
     59 H23         1.3850    1.2530   -1.3410 hc        1 MOL      0.168306
     60 H24         2.6110    1.5630   -4.7790 hn        1 MOL      0.347746
     61 H25         2.8590   -0.2140   -4.8000 hn        1 MOL      0.347746
     62 N7          2.2600    4.9780   -2.0680 n         1 MOL     -0.281838
     63 C20         2.0200    6.3760   -1.6610 c3        1 MOL     -0.343248
     64 C21         0.5540    6.7170   -1.7920 c         1 MOL      0.660035
     65 O12        -0.1600    6.3440   -2.7230 o         1 MOL     -0.533430
     66 H26         2.4910    4.8210   -3.0420 hn        1 MOL      0.225449
     67 H27         2.6230    7.0490   -2.2690 h1        1 MOL      0.163323
     68 H28         2.3130    6.3610   -0.6080 h1        1 MOL      0.163323
     69 N8          0.0220    7.4720   -0.8100 n         1 MOL     -0.524263
     70 C22        -1.4550    7.8270   -0.7690 c3        1 MOL     -0.265019
     71 C23        -2.2910    6.6270   -0.2810 c         1 MOL      0.531761
     72 O13        -3.4920    6.8340   -0.1390 o         1 MOL     -0.576243
     73 C24        -1.8290    9.0660    0.1420 c3        1 MOL      0.493272
     74 C25        -1.5810    8.7470    1.6770 c3        1 MOL     -0.166452
     75 O14        -1.0600   10.2140   -0.1010 oh        1 MOL     -0.645604
     76 H29         0.6020    7.6860   -0.0110 hn        1 MOL      0.281805
     77 H30        -1.7470    7.9960   -1.8050 h1        1 MOL      0.173584
     78 H31        -2.8680    9.3050   -0.0770 h1        1 MOL      0.023809
     79 H32        -0.1470    9.9210   -0.1290 ho        1 MOL      0.377165
     80 H33        -2.5520    8.4220    2.0540 hc        1 MOL      0.035374
     81 H34        -0.7840    8.0230    1.8020 hc        1 MOL      0.035374
     82 H35        -1.2420    9.6020    2.2690 hc        1 MOL      0.035374
     83 N9         -1.7850    5.4170   -0.0830 n         1 MOL     -0.147383
     84 C26        -2.4790    4.2840    0.5770 c3        1 MOL     -0.080958
     85 C27        -2.0960    2.9130   -0.0880 c         1 MOL      0.401383
     86 O15        -1.3110    2.8480   -1.0210 o         1 MOL     -0.436101
     87 C28        -2.1680    4.1570    2.0850 c3        1 MOL      0.005815
     88 C29        -0.6570    4.2150    2.3320 c3        1 MOL      0.296229
     89 C30        -2.8130    5.3650    2.8630 c3        1 MOL     -0.305839
     90 C31        -0.1660    3.2500    3.3650 c3        1 MOL     -0.510574
     91 H36        -0.8180    5.2560   -0.2960 hn        1 MOL      0.104977
     92 H37        -3.5490    4.4360    0.5550 h1        1 MOL      0.086561
     93 H38        -2.5070    3.2230    2.5230 hc        1 MOL      0.026535
     94 H39        -0.3360    5.2380    2.5360 hc        1 MOL     -0.001418
     95 H40        -0.0820    4.0760    1.4170 hc        1 MOL     -0.001418
     96 H41        -3.8880    5.3220    2.6500 hc        1 MOL      0.068952
     97 H42        -2.7690    5.2720    3.9490 hc        1 MOL      0.068952
     98 H43        -2.3180    6.2980    2.5780 hc        1 MOL      0.068952
     99 H44         0.7960    3.6170    3.7290 hc        1 MOL      0.115668
    100 H45        -0.9170    3.1840    4.1510 hc        1 MOL      0.115668
    101 H46         0.1360    2.2640    2.9990 hc        1 MOL      0.115668
    102 N10        -2.7320    1.8320    0.3630 n         1 MOL     -0.361810
    103 C32        -2.4070    0.5620   -0.1330 c3        1 MOL     -0.175720
    104 C33        -3.6680   -0.3770   -0.1020 c         1 MOL      0.701393
    105 O16        -3.6000   -1.5550   -0.1770 o         1 MOL     -0.573126
    106 C34        -1.1600   -0.0730    0.5640 c3        1 MOL     -0.173743
    107 C35        -0.3080   -1.0380   -0.2180 c         1 MOL      0.776385
    108 O17         0.8360   -1.3260    0.2370 o         1 MOL     -0.785191
    109 O18        -0.6690   -1.4030   -1.3280 o         1 MOL     -0.785191
    110 H47        -3.4990    1.9420    1.0070 hn        1 MOL      0.287626
    111 H48        -2.1420    0.6450   -1.1830 h1        1 MOL      0.123735
    112 H49        -1.3830   -0.4770    1.5540 hc        1 MOL      0.094506
    113 H50        -0.4900    0.7350    0.8450 hc        1 MOL      0.094506
    114 N11        -4.8780    0.1190   -0.1530 n         1 MOL     -0.467382
    115 C36        -6.0840   -0.5260   -0.7030 c3        1 MOL      0.271312
    116 C37        -6.3610   -1.7430    0.1920 c         1 MOL      0.305006
    117 O19        -6.5090   -1.5800    1.4020 o         1 MOL     -0.485182
    118 C38        -7.1860    0.5670   -0.6950 c3        1 MOL     -0.163363
    119 C39        -8.4420    0.1080   -1.4340 ca        1 MOL      0.040264
    120 C40        -8.7020    0.4490   -2.7920 ca        1 MOL     -0.135816
    121 C41        -9.3070   -0.7750   -0.7150 ca        1 MOL     -0.135816
    122 C42        -9.8390   -0.0860   -3.4840 ca        1 MOL     -0.161764
    123 C43       -10.4110   -1.2730   -1.4010 ca        1 MOL     -0.161764
    124 C44       -10.6340   -0.9630   -2.7130 ca        1 MOL     -0.054957
    125 H51        -4.9320    1.1240   -0.0390 hn        1 MOL      0.188737
    126 H52        -5.8560   -0.8260   -1.7340 h1        1 MOL     -0.024171
    127 H53        -6.9490    1.5600   -1.0640 hc        1 MOL      0.076403
    128 H54        -7.3710    0.6500    0.3810 hc        1 MOL      0.076403
    129 H55        -7.9700    1.0460   -3.3090 ha        1 MOL      0.113946
    130 H56        -9.1060   -0.9440    0.3320 ha        1 MOL      0.113946
    131 H57       -10.1070    0.2710   -4.4730 ha        1 MOL      0.120165
    132 H58       -11.1020   -1.9210   -0.8840 ha        1 MOL      0.120165
    133 H59       -11.5020   -1.4000   -3.1870 ha        1 MOL      0.071910
    134 N12        -6.5780   -2.9060   -0.4180 n         1 MOL      0.048781
    135 C45        -6.7160   -4.0560    0.4280 c3        1 MOL      0.069349
    136 C46        -5.6580   -4.2710    1.6070 c         1 MOL      0.216702
    137 O20        -6.0700   -4.4750    2.7570 o         1 MOL     -0.491093
    138 C47        -6.7210   -5.3320   -0.4220 c3        1 MOL      0.062517
    139 C48        -7.0160   -4.7610   -1.7610 c3        1 MOL     -0.157568
    140 C49        -6.4340   -3.3210   -1.7810 c3        1 MOL     -0.079177
    141 H60        -7.7280   -3.9620    0.8400 h1        1 MOL      0.027213
    142 H61        -5.7590   -5.8190   -0.4850 hc        1 MOL      0.003447
    143 H62        -7.4580   -6.0690   -0.0880 hc        1 MOL      0.003447
    144 H63        -6.6800   -5.3380   -2.6290 hc        1 MOL      0.054566
    145 H64        -8.1030   -4.6270   -1.8380 hc        1 MOL      0.054566
    146 H65        -5.3640   -3.3330   -2.0160 h1        1 MOL      0.045214
    147 H66        -7.0910   -2.6650   -2.3440 h1        1 MOL      0.045214
    148 N13        -4.3820   -4.0410    1.3680 n         1 MOL     -0.065036
    149 C50        -3.3350   -4.0540    2.3620 c3        1 MOL     -0.329102
    150 C51        -3.6130   -3.0360    3.4370 c         1 MOL      0.513152
    151 O21        -3.0750   -3.2530    4.5540 o         1 MOL     -0.584179
    152 C52        -2.0020   -3.7850    1.6760 c3        1 MOL      0.080671
    153 C53        -1.6180   -5.0130    0.8500 c3        1 MOL     -0.214626
    154 C54        -0.4970   -4.7190   -0.0850 c         1 MOL      0.938042
    155 O22         0.6370   -4.5400    0.3940 o         1 MOL     -0.861323
    156 O23        -0.7030   -4.6430   -1.3340 o         1 MOL     -0.861323
    157 H67        -4.1720   -3.7790    0.4150 hn        1 MOL      0.291311
    158 H68        -3.3430   -5.0080    2.8980 h1        1 MOL      0.166767
    159 H69        -1.2360   -3.6830    2.4460 hc        1 MOL      0.063563
    160 H70        -2.0440   -2.8360    1.1320 hc        1 MOL      0.063563
    161 H71        -2.4180   -5.3430    0.1970 hc        1 MOL      0.015000
    162 H72        -1.3610   -5.8530    1.4970 hc        1 MOL      0.015000
    163 N14        -4.2830   -1.8770    3.2540 n         1 MOL     -0.061404
    164 C55        -4.6910   -0.8230    4.2270 c3        1 MOL     -0.326259
    165 H73        -4.1880   -0.9930    5.1790 h1        1 MOL      0.121548
    166 H74        -4.4140    0.1580    3.8400 h1        1 MOL      0.121548
    167 H75        -5.7700   -0.8630    4.3760 h1        1 MOL      0.121548
    168 H76        -4.4940   -1.7050    2.2790 hn        1 MOL      0.098101
    169 Ca1         1.2580   -3.0910   -1.8000 Ca        1 MOL      1.778759
    170 O24         0.1650   -2.4820   -4.2550 oh        1 MOL     -0.830174
    171 H77        -0.1090   -3.0080   -5.0040 ho        1 MOL      0.408286
    172 H78        -0.5170   -1.8130   -4.1710 ho        1 MOL      0.408286
    173 O25         2.3130   -5.6100   -1.9980 oh        1 MOL     -0.830174
    174 H79         2.3910   -5.9160   -2.9100 ho        1 MOL      0.408286
    175 H80         2.8930   -6.1860   -1.4950 ho        1 MOL      0.408286
    176 O26         3.1100   -3.4440   -4.0730 oh        1 MOL     -0.830174
    177 H81         3.6360   -2.7860   -4.5410 ho        1 MOL      0.408286
    178 H82         2.7270   -3.9830   -4.7580 ho        1 MOL      0.408286
@<TRIPOS>BOND
     1    1    2 1   
     2    1    4 1   
     3    1    5 1   
     4    1    6 1   
     5    2    3 2   
     6    2    7 1   
     7    7    8 1   
     8    7   15 1   
     9    8    9 1   
    10    8   11 1   
    11    8   16 1   
    12    9   10 2   
    13    9   19 1   
    14   11   12 1   
    15   11   17 1   
    16   11   18 1   
    17   12   13 1   
    18   12   14 1   
    19   19   20 1   
    20   19   24 1   
    21   20   21 1   
    22   20   23 1   
    23   20   25 1   
    24   21   22 2   
    25   21   29 1   
    26   23   26 1   
    27   23   27 1   
    28   23   28 1   
    29   29   30 1   
    30   29   37 1   
    31   30   31 1   
    32   30   33 1   
    33   30   38 1   
    34   31   32 2   
    35   31   41 1   
    36   33   34 1   
    37   33   39 1   
    38   33   40 1   
    39   34   35 1   
    40   34   36 1   
    41   41   42 1   
    42   41   45 1   
    43   42   43 1   
    44   42   46 1   
    45   42   47 1   
    46   43   44 2   
    47   43   48 1   
    48   48   49 1   
    49   48   56 1   
    50   49   50 1   
    51   49   52 1   
    52   49   57 1   
    53   50   51 2   
    54   50   62 1   
    55   52   53 1   
    56   52   58 1   
    57   52   59 1   
    58   53   54 1   
    59   53   55 2   
    60   54   60 1   
    61   54   61 1   
    62   62   63 1   
    63   62   66 1   
    64   63   64 1   
    65   63   67 1   
    66   63   68 1   
    67   64   65 2   
    68   64   69 1   
    69   69   70 1   
    70   69   76 1   
    71   70   71 1   
    72   70   73 1   
    73   70   77 1   
    74   71   72 2   
    75   71   83 1   
    76   73   74 1   
    77   73   75 1   
    78   73   78 1   
    79   74   80 1   
    80   74   81 1   
    81   74   82 1   
    82   75   79 1   
    83   83   84 1   
    84   83   91 1   
    85   84   85 1   
    86   84   87 1   
    87   84   92 1   
    88   85   86 2   
    89   85  102 1   
    90   87   88 1   
    91   87   89 1   
    92   87   93 1   
    93   88   90 1   
    94   88   94 1   
    95   88   95 1   
    96   89   96 1   
    97   89   97 1   
    98   89   98 1   
    99   90   99 1   
   100   90  100 1   
   101   90  101 1   
   102  102  103 1   
   103  102  110 1   
   104  103  104 1   
   105  103  106 1   
   106  103  111 1   
   107  104  105 2   
   108  104  114 1   
   109  106  107 1   
   110  106  112 1   
   111  106  113 1   
   112  107  108 1   
   113  107  109 1   
   114  114  115 1   
   115  114  125 1   
   116  115  116 1   
   117  115  118 1   
   118  115  126 1   
   119  116  117 2   
   120  116  134 1   
   121  118  119 1   
   122  118  127 1   
   123  118  128 1   
   124  119  120 ar  
   125  119  121 ar  
   126  120  122 ar  
   127  120  129 1   
   128  121  123 ar  
   129  121  130 1   
   130  122  124 ar  
   131  122  131 1   
   132  123  124 ar  
   133  123  132 1   
   134  124  133 1   
   135  134  135 1   
   136  134  140 1   
   137  135  136 1   
   138  135  138 1   
   139  135  141 1   
   140  136  137 2   
   141  136  148 1   
   142  138  139 1   
   143  138  142 1   
   144  138  143 1   
   145  139  140 1   
   146  139  144 1   
   147  139  145 1   
   148  140  146 1   
   149  140  147 1   
   150  148  149 1   
   151  148  157 1   
   152  149  150 1   
   153  149  152 1   
   154  149  158 1   
   155  150  151 2   
   156  150  163 1   
   157  152  153 1   
   158  152  159 1   
   159  152  160 1   
   160  153  154 1   
   161  153  161 1   
   162  153  162 1   
   163  154  155 1   
   164  154  156 1   
   165  163  164 1   
   166  163  168 1   
   167  164  165 1   
   168  164  166 1   
   169  164  167 1   
   170  170  171 1   
   171  170  172 1   
   172  173  174 1   
   173  173  175 1   
   174  176  177 1   
   175  176  178 1   
@<TRIPOS>SUBSTRUCTURE
     1 MOL         1 TEMP              0 ****  ****    0 ROOT
