@<TRIPOS>MOLECULE
MOL
  188   182     1     0     0
SMALL
resp


@<TRIPOS>ATOM
      1 C1         -6.4030   -0.9300    3.5850 c3        1 MOL     -0.133747
      2 C2         -6.8630   -1.4570    2.2150 c         1 MOL      0.560232
      3 O1         -6.0100   -1.4440    1.3060 o         1 MOL     -0.495034
      4 H1         -6.6540   -1.6580    4.3560 hc        1 MOL      0.020694
      5 H2         -5.3240   -0.7740    3.5720 hc        1 MOL      0.020694
      6 H3         -6.9050    0.0140    3.7990 hc        1 MOL      0.020694
      7 N1         -8.1110   -1.9170    2.0210 n         1 MOL     -0.501278
      8 C3         -8.7630   -2.3850    0.7560 c3        1 MOL      0.190218
      9 C4         -8.7140   -1.2400   -0.3430 c         1 MOL      0.387188
     10 O2         -8.4350   -1.5580   -1.5290 o         1 MOL     -0.423346
     11 C5         -8.2100   -3.7840    0.2600 c3        1 MOL     -0.282967
     12 C6         -8.9510   -4.4730   -0.8900 c         1 MOL      0.673803
     13 O3         -8.3100   -5.2790   -1.5860 o         1 MOL     -0.617615
     14 O4        -10.0980   -4.1270   -1.1610 o         1 MOL     -0.617615
     15 H4         -8.7050   -1.9510    2.8340 hn        1 MOL      0.287737
     16 H5         -9.8180   -2.5580    0.9840 h1        1 MOL      0.029698
     17 H6         -8.2640   -4.4690    1.0990 hc        1 MOL      0.093389
     18 H7         -7.1560   -3.7730   -0.0140 hc        1 MOL      0.093389
     19 N2         -8.8540    0.0450   -0.0490 n         1 MOL     -0.343330
     20 C7         -8.9390    1.1860   -1.0390 c3        1 MOL     -0.043073
     21 C8         -7.5670    1.8680   -1.3140 c         1 MOL      0.595794
     22 O5         -7.4670    2.9840   -1.8610 o         1 MOL     -0.573533
     23 C9         -9.9510    2.2180   -0.5720 c3        1 MOL      0.269424
     24 C10        -9.6160    2.9120    0.8000 c3        1 MOL     -0.245640
     25 C11       -10.4820    4.1300    0.9160 c3        1 MOL      0.062382
     26 C12       -10.3760    4.9780    2.2200 c3        1 MOL      0.029477
     27 N3        -11.2480    6.2250    2.3050 n4        1 MOL     -0.226104
     28 H8         -9.1100    0.1430    0.9210 hn        1 MOL      0.174935
     29 H9         -9.2630    0.7380   -1.9870 h1        1 MOL      0.124037
     30 H10       -10.8840    1.6660   -0.5070 hc        1 MOL     -0.038273
     31 H11       -10.1830    3.0010   -1.2890 hc        1 MOL     -0.038273
     32 H12        -8.6120    3.3420    0.8330 hc        1 MOL      0.070763
     33 H13        -9.7930    2.2530    1.6580 hc        1 MOL      0.070763
     34 H14       -11.5160    3.7760    0.8040 hc        1 MOL      0.020270
     35 H15       -10.2450    4.8980    0.1710 hc        1 MOL      0.020270
     36 H16        -9.3450    5.3310    2.3000 hx        1 MOL      0.063824
     37 H17       -10.6310    4.3900    3.1000 hx        1 MOL      0.063824
     38 H18       -11.1410    6.8870    1.5520 hn        1 MOL      0.227364
     39 H19       -12.1840    5.8430    2.2700 hn        1 MOL      0.227364
     40 H20       -11.1060    6.7010    3.1840 hn        1 MOL      0.227364
     41 N4         -6.4540    1.1650   -1.0710 n         1 MOL     -0.422207
     42 C13        -5.0510    1.6220   -0.9810 c3        1 MOL     -0.013426
     43 C14        -4.3810    1.5910   -2.2720 c         1 MOL      0.639462
     44 O6         -4.4890    0.6160   -3.0190 o         1 MOL     -0.508636
     45 C15        -4.2190    0.7300   -0.0110 c3        1 MOL     -0.207765
     46 C16        -2.7330    1.2680    0.0830 c         1 MOL      0.688492
     47 O7         -2.4510    2.1820    0.8660 o         1 MOL     -0.767984
     48 O8         -1.8710    0.8800   -0.6880 o         1 MOL     -0.767984
     49 H21        -6.6330    0.2610   -0.6340 hn        1 MOL      0.205288
     50 H22        -5.0520    2.6420   -0.5830 h1        1 MOL      0.036807
     51 H23        -4.2210   -0.3200   -0.3070 hc        1 MOL      0.109315
     52 H24        -4.6900    0.7620    0.9710 hc        1 MOL      0.109315
     53 N5         -3.5690    2.6300   -2.5660 n         1 MOL     -0.439489
     54 C17        -3.0570    2.9420   -3.9640 c3        1 MOL     -0.075894
     55 C18        -2.0890    1.8640   -4.5160 c         1 MOL      0.451518
     56 O9         -2.0610    1.7170   -5.7760 o         1 MOL     -0.542643
     57 H25        -3.5470    3.3530   -1.8580 hn        1 MOL      0.280856
     58 H26        -2.5280    3.8900   -4.0250 h1        1 MOL      0.098850
     59 H27        -3.9830    3.0610   -4.5220 h1        1 MOL      0.098850
     60 N6         -1.4040    0.9930   -3.7400 n         1 MOL     -0.288462
     61 C19        -0.5910   -0.1130   -4.1690 c3        1 MOL      0.079162
     62 C20        -0.9720   -1.3600   -3.3390 c         1 MOL      0.255429
     63 O10        -0.2000   -2.2540   -3.1000 o         1 MOL     -0.382025
     64 C21         0.9320    0.2370   -4.1320 c3        1 MOL     -0.411927
     65 C22         1.5400    0.5000   -2.7280 c         1 MOL      0.534785
     66 N7          2.7670    0.7550   -2.6690 n         1 MOL     -0.673291
     67 O11         0.8550    0.6280   -1.7290 o         1 MOL     -0.523323
     68 H28        -1.6840    1.1080   -2.7670 hn        1 MOL      0.327456
     69 H29        -0.8270   -0.4500   -5.1840 h1        1 MOL      0.124935
     70 H30         1.0440    1.1420   -4.7430 hc        1 MOL      0.148764
     71 H31         1.4860   -0.5370   -4.6740 hc        1 MOL      0.148764
     72 H32         3.2570    0.8470   -3.5500 hn        1 MOL      0.347698
     73 H33         3.2250    0.8150   -1.7770 hn        1 MOL      0.347698
     74 N8         -2.2290   -1.4030   -2.8820 n         1 MOL     -0.082149
     75 C23        -2.8660   -2.4590   -2.1170 c3        1 MOL     -0.298160
     76 C24        -2.2990   -2.8460   -0.7400 c         1 MOL      0.608017
     77 O12        -2.7790   -3.8540   -0.1480 o         1 MOL     -0.538479
     78 H34        -2.8270   -0.6810   -3.2650 hn        1 MOL      0.174629
     79 H35        -2.7590   -3.3470   -2.7310 h1        1 MOL      0.161279
     80 H36        -3.9320   -2.2110   -2.0670 h1        1 MOL      0.161279
     81 N9         -1.5100   -2.0240   -0.0920 n         1 MOL     -0.553101
     82 C25        -0.9080   -2.2860    1.2570 c3        1 MOL     -0.087841
     83 C26         0.4090   -1.4560    1.3430 c         1 MOL      0.534046
     84 O13         0.4230   -0.2680    1.1170 o         1 MOL     -0.662914
     85 C27        -1.8380   -1.8630    2.3730 c3        1 MOL     -0.088950
     86 C28        -1.2690   -1.8160    3.7820 ca        1 MOL      0.076703
     87 C29        -0.8710   -2.9730    4.4730 ca        1 MOL     -0.208241
     88 C30        -1.0980   -0.5330    4.4290 ca        1 MOL     -0.208241
     89 C31        -0.3880   -2.8970    5.7660 ca        1 MOL     -0.259539
     90 C32        -0.5680   -0.4410    5.6940 ca        1 MOL     -0.259539
     91 C33        -0.1470   -1.5960    6.3390 ca        1 MOL      0.401024
     92 O14         0.2710   -1.4670    7.6160 oh        1 MOL     -0.469951
     93 H37        -1.2130   -1.2170   -0.6130 hn        1 MOL      0.397699
     94 H38        -0.6890   -3.3470    1.3000 h1        1 MOL      0.104417
     95 H39        -2.7240   -2.4910    2.3770 hc        1 MOL      0.110157
     96 H40        -2.2510   -0.8970    2.0880 hc        1 MOL      0.110157
     97 H41        -1.1170   -3.9110    3.9890 ha        1 MOL      0.152475
     98 H42        -1.4600    0.3170    3.8550 ha        1 MOL      0.152475
     99 H43        -0.1680   -3.8340    6.2480 ha        1 MOL      0.150698
    100 H44        -0.3800    0.5200    6.1520 ha        1 MOL      0.150698
    101 H45         0.2470   -0.5410    7.8710 ho        1 MOL      0.335070
    102 N10         1.4650   -2.1850    1.6940 n         1 MOL     -0.257715
    103 C34         2.8750   -1.7880    1.6700 c3        1 MOL      0.037449
    104 C35         3.4200   -1.7750    0.2430 c         1 MOL      0.356764
    105 O15         3.9910   -0.7850   -0.1790 o         1 MOL     -0.496092
    106 C36         3.8130   -2.6780    2.5970 c3        1 MOL      0.033428
    107 C37         3.4170   -2.6030    4.0870 c3        1 MOL     -0.184246
    108 C38         5.2810   -2.4070    2.3380 c3        1 MOL     -0.273413
    109 C39         3.5360   -1.2850    4.7940 c3        1 MOL      0.135840
    110 H46         1.2720   -3.1010    2.0750 hn        1 MOL      0.217068
    111 H47         2.9660   -0.7480    1.9900 h1        1 MOL      0.089386
    112 H48         3.7010   -3.7010    2.2310 hc        1 MOL      0.007626
    113 H49         4.0120   -3.2640    4.7190 hc        1 MOL      0.069433
    114 H50         2.3770   -2.8850    4.2340 hc        1 MOL      0.069433
    115 H51         5.4860   -1.3370    2.2640 hc        1 MOL      0.089325
    116 H52         5.8390   -2.8900    3.1400 hc        1 MOL      0.089325
    117 H53         5.6580   -2.8630    1.4230 hc        1 MOL      0.089325
    118 H54         3.9110   -1.3450    5.8160 hc        1 MOL     -0.033433
    119 H55         4.1810   -0.5280    4.3550 hc        1 MOL     -0.033433
    120 H56         2.5270   -0.8890    4.9140 hc        1 MOL     -0.033433
    121 N11         3.1280   -2.8620   -0.5050 n         1 MOL     -0.214070
    122 C40         3.3460   -2.9270   -1.9600 c3        1 MOL      0.026236
    123 C41         4.8090   -2.9290   -2.3110 c         1 MOL      0.264463
    124 O16         5.1950   -2.2360   -3.1840 o         1 MOL     -0.464352
    125 C42         2.5800   -4.1190   -2.5700 c3        1 MOL      0.094996
    126 O17         1.2920   -4.3170   -2.0840 oh        1 MOL     -0.554142
    127 H57         2.6470   -3.6100   -0.0210 hn        1 MOL      0.206965
    128 H58         2.9450   -2.0310   -2.4510 h1        1 MOL      0.103317
    129 H59         3.2050   -4.9910   -2.4120 h1        1 MOL      0.049205
    130 H60         2.4170   -3.8030   -3.6010 h1        1 MOL      0.049205
    131 H61         0.6800   -3.7280   -2.5460 ho        1 MOL      0.347261
    132 N12         5.6240   -3.7140   -1.5500 n         1 MOL     -0.100715
    133 C43         7.0640   -3.9090   -1.6940 c3        1 MOL      0.175136
    134 C44         7.9610   -2.7080   -1.9500 c         1 MOL      0.567694
    135 O18         8.8780   -2.8070   -2.7400 o         1 MOL     -0.515615
    136 C45         7.1280   -5.1170   -2.7000 c3        1 MOL     -0.465393
    137 H62         5.1510   -4.4200   -1.0010 hn        1 MOL      0.172837
    138 H63         7.4050   -4.3150   -0.7410 h1        1 MOL      0.016696
    139 H64         8.0170   -5.6650   -2.3910 hc        1 MOL      0.125315
    140 H65         6.2770   -5.8000   -2.6470 hc        1 MOL      0.125315
    141 H66         7.3290   -4.7580   -3.7050 hc        1 MOL      0.125315
    142 N13         7.6410   -1.5530   -1.3240 n         1 MOL     -0.711606
    143 C46         8.2540   -0.2340   -1.5820 c3        1 MOL      0.510945
    144 C47         8.1250    0.6760   -0.3610 c         1 MOL      0.361258
    145 O19         7.4390    0.3910    0.6270 o         1 MOL     -0.474905
    146 C48         7.4930    0.4030   -2.7050 c3        1 MOL     -0.446609
    147 H67         6.9010   -1.5640   -0.6340 hn        1 MOL      0.289426
    148 H68         9.2930   -0.4260   -1.8650 h1        1 MOL     -0.004779
    149 H69         7.7150   -0.1610   -3.6120 hc        1 MOL      0.128558
    150 H70         6.4190    0.4300   -2.5280 hc        1 MOL      0.128558
    151 H71         7.7500    1.4490   -2.8790 hc        1 MOL      0.128558
    152 N14         9.0050    1.6750   -0.3160 n         1 MOL     -0.486857
    153 C49         9.2520    2.6180    0.7370 c3        1 MOL      0.001008
    154 C50         9.6050    1.8740    2.0580 c         1 MOL      0.333379
    155 O20         9.4120    2.4130    3.1800 o         1 MOL     -0.492059
    156 C51         8.0330    3.6040    0.9080 c3        1 MOL      0.186478
    157 C52         7.8280    4.6190   -0.2730 c3        1 MOL     -0.407661
    158 C53         8.9360    5.7140   -0.4540 c         1 MOL      0.748575
    159 O21         9.8220    5.5100   -1.2760 o         1 MOL     -0.721822
    160 O22         8.9510    6.7280    0.3110 o         1 MOL     -0.721822
    161 H72         9.6230    1.8130   -1.1090 hn        1 MOL      0.291343
    162 H73        10.1210    3.2110    0.4270 h1        1 MOL      0.131541
    163 H74         8.1180    4.0840    1.8760 hc        1 MOL      0.007491
    164 H75         7.1000    3.0730    1.0780 hc        1 MOL      0.007491
    165 H76         6.8930    5.1740   -0.2630 hc        1 MOL      0.042610
    166 H77         7.7930    4.0340   -1.1870 hc        1 MOL      0.042610
    167 N15        10.2170    0.7170    1.9670 n         1 MOL     -0.168058
    168 C54        10.4460   -0.1850    3.1260 c3        1 MOL     -0.181616
    169 H78         9.6410   -0.0560    3.8500 h1        1 MOL      0.092112
    170 H79        10.4640   -1.2200    2.7850 h1        1 MOL      0.092112
    171 H80        11.3990    0.0610    3.5950 h1        1 MOL      0.092112
    172 H81        10.6130    0.4950    1.0740 hn        1 MOL      0.204967
    173 Ca1         0.1910    2.2220    0.4210 Ca        1 MOL      1.785368
    174 O23        -0.0950    2.8010    2.9690 oh        1 MOL     -0.823317
    175 H82         0.5110    2.8380    3.7140 ho        1 MOL      0.410170
    176 H83        -0.9610    2.8740    3.3580 ho        1 MOL      0.410170
    177 O24        -0.1630    4.9840    0.9320 oh        1 MOL     -0.823317
    178 H84        -0.0700    5.3030    1.8250 ho        1 MOL      0.410170
    179 H85        -0.0750    5.7650    0.3840 ho        1 MOL      0.410170
    180 O25         2.0400    3.6190   -0.7650 oh        1 MOL     -0.823317
    181 H86         2.9710    3.3650   -0.7780 ho        1 MOL      0.410170
    182 H87         1.9790    4.3620   -1.3640 ho        1 MOL      0.410170
    183 O26        -0.6400    3.7590   -1.9010 oh        1 MOL     -0.823317
    184 H88        -0.0770    3.8600   -2.6690 ho        1 MOL      0.410170
    185 H89        -0.8770    4.6490   -1.6530 ho        1 MOL      0.410170
    186 O27         2.5650    2.3810    1.9380 oh        1 MOL     -0.823317
    187 H90         2.7690    1.7350    2.6190 ho        1 MOL      0.410170
    188 H91         3.2160    3.0730    2.0790 ho        1 MOL      0.410170
@<TRIPOS>BOND
     1    1    2 1   
     2    1    4 1   
     3    1    5 1   
     4    1    6 1   
     5    2    3 2   
     6    2    7 1   
     7    7    8 1   
     8    7   15 1   
     9    8    9 1   
    10    8   11 1   
    11    8   16 1   
    12    9   10 2   
    13    9   19 1   
    14   11   12 1   
    15   11   17 1   
    16   11   18 1   
    17   12   13 1   
    18   12   14 1   
    19   19   20 1   
    20   19   28 1   
    21   20   21 1   
    22   20   23 1   
    23   20   29 1   
    24   21   22 2   
    25   21   41 1   
    26   23   24 1   
    27   23   30 1   
    28   23   31 1   
    29   24   25 1   
    30   24   32 1   
    31   24   33 1   
    32   25   26 1   
    33   25   34 1   
    34   25   35 1   
    35   26   27 1   
    36   26   36 1   
    37   26   37 1   
    38   27   38 1   
    39   27   39 1   
    40   27   40 1   
    41   41   42 1   
    42   41   49 1   
    43   42   43 1   
    44   42   45 1   
    45   42   50 1   
    46   43   44 2   
    47   43   53 1   
    48   45   46 1   
    49   45   51 1   
    50   45   52 1   
    51   46   47 1   
    52   46   48 1   
    53   53   54 1   
    54   53   57 1   
    55   54   55 1   
    56   54   58 1   
    57   54   59 1   
    58   55   56 2   
    59   55   60 1   
    60   60   61 1   
    61   60   68 1   
    62   61   62 1   
    63   61   64 1   
    64   61   69 1   
    65   62   63 2   
    66   62   74 1   
    67   64   65 1   
    68   64   70 1   
    69   64   71 1   
    70   65   66 1   
    71   65   67 2   
    72   66   72 1   
    73   66   73 1   
    74   74   75 1   
    75   74   78 1   
    76   75   76 1   
    77   75   79 1   
    78   75   80 1   
    79   76   77 2   
    80   76   81 1   
    81   81   82 1   
    82   81   93 1   
    83   82   83 1   
    84   82   85 1   
    85   82   94 1   
    86   83   84 2   
    87   83  102 1   
    88   85   86 1   
    89   85   95 1   
    90   85   96 1   
    91   86   87 ar  
    92   86   88 ar  
    93   87   89 ar  
    94   87   97 1   
    95   88   90 ar  
    96   88   98 1   
    97   89   91 ar  
    98   89   99 1   
    99   90   91 ar  
   100   90  100 1   
   101   91   92 1   
   102   92  101 1   
   103  102  103 1   
   104  102  110 1   
   105  103  104 1   
   106  103  106 1   
   107  103  111 1   
   108  104  105 2   
   109  104  121 1   
   110  106  107 1   
   111  106  108 1   
   112  106  112 1   
   113  107  109 1   
   114  107  113 1   
   115  107  114 1   
   116  108  115 1   
   117  108  116 1   
   118  108  117 1   
   119  109  118 1   
   120  109  119 1   
   121  109  120 1   
   122  121  122 1   
   123  121  127 1   
   124  122  123 1   
   125  122  125 1   
   126  122  128 1   
   127  123  124 2   
   128  123  132 1   
   129  125  126 1   
   130  125  129 1   
   131  125  130 1   
   132  126  131 1   
   133  132  133 1   
   134  132  137 1   
   135  133  134 1   
   136  133  136 1   
   137  133  138 1   
   138  134  135 2   
   139  134  142 1   
   140  136  139 1   
   141  136  140 1   
   142  136  141 1   
   143  142  143 1   
   144  142  147 1   
   145  143  144 1   
   146  143  146 1   
   147  143  148 1   
   148  144  145 2   
   149  144  152 1   
   150  146  149 1   
   151  146  150 1   
   152  146  151 1   
   153  152  153 1   
   154  152  161 1   
   155  153  154 1   
   156  153  156 1   
   157  153  162 1   
   158  154  155 2   
   159  154  167 1   
   160  156  157 1   
   161  156  163 1   
   162  156  164 1   
   163  157  158 1   
   164  157  165 1   
   165  157  166 1   
   166  158  159 1   
   167  158  160 1   
   168  167  168 1   
   169  167  172 1   
   170  168  169 1   
   171  168  170 1   
   172  168  171 1   
   173  174  175 1   
   174  174  176 1   
   175  177  178 1   
   176  177  179 1   
   177  180  181 1   
   178  180  182 1   
   179  183  184 1   
   180  183  185 1   
   181  186  187 1   
   182  186  188 1   
@<TRIPOS>SUBSTRUCTURE
     1 MOL         1 TEMP              0 ****  ****    0 ROOT
