@<TRIPOS>MOLECULE
MOL
  181   177     1     0     0
SMALL
resp


@<TRIPOS>ATOM
      1 C1        -10.0990   -7.0760   -0.9840 c3        1 MOL     -0.392921
      2 C2         -9.6670   -5.8140   -0.1810 c         1 MOL      0.628860
      3 O1         -8.9110   -5.9470    0.7390 o         1 MOL     -0.522072
      4 H1        -10.7450   -7.6980   -0.3640 hc        1 MOL      0.093851
      5 H2        -10.6420   -6.7690   -1.8790 hc        1 MOL      0.093851
      6 H3         -9.2150   -7.6440   -1.2720 hc        1 MOL      0.093851
      7 N1        -10.1310   -4.6170   -0.5130 n         1 MOL     -0.369592
      8 C3        -11.0620   -4.1890   -1.5770 c3        1 MOL     -0.021748
      9 C4        -12.1170   -3.1250   -1.2390 c         1 MOL      0.299965
     10 O2        -12.8070   -2.5880   -2.1380 o         1 MOL     -0.509495
     11 C5        -10.2060   -3.6820   -2.7740 c3        1 MOL     -0.070517
     12 C6         -9.3750   -2.4700   -2.3970 c         1 MOL      0.742419
     13 O3         -8.2930   -2.3180   -3.0100 o         1 MOL     -0.771676
     14 O4         -9.8110   -1.5000   -1.7910 o         1 MOL     -0.771676
     15 H4         -9.8960   -3.8900    0.1330 hn        1 MOL      0.240577
     16 H5        -11.6190   -5.1020   -1.8180 h1        1 MOL      0.085287
     17 H6        -10.7730   -3.6330   -3.7010 hc        1 MOL      0.034335
     18 H7         -9.5960   -4.5780   -2.9560 hc        1 MOL      0.034335
     19 N2        -12.3630   -2.8060    0.0250 n         1 MOL     -0.195398
     20 C7        -13.1370   -1.6700    0.4410 c3        1 MOL      0.251862
     21 C8        -12.2000   -0.8120    1.3320 c         1 MOL      0.349692
     22 O5        -12.5610   -0.3520    2.4290 o         1 MOL     -0.559748
     23 C9        -14.3600   -2.2260    1.1960 c3        1 MOL     -0.160496
     24 H8        -11.8590   -3.2960    0.7520 hn        1 MOL      0.178323
     25 H9        -13.4100   -1.1020   -0.4480 h1        1 MOL      0.021338
     26 H10       -15.2540   -1.7520    0.7910 hc        1 MOL      0.029432
     27 H11       -14.4020   -3.2990    1.0430 hc        1 MOL      0.029432
     28 H12       -14.3390   -1.9720    2.2580 hc        1 MOL      0.029432
     29 N3        -10.9620   -0.5820    0.9590 n         1 MOL     -0.052423
     30 C10        -9.9660    0.2070    1.6820 c3        1 MOL     -0.215472
     31 C11        -9.5030    1.3780    0.7550 c         1 MOL      0.451735
     32 O6         -9.6590    1.4010   -0.4770 o         1 MOL     -0.502323
     33 C12        -8.9060   -0.7140    2.1520 c3        1 MOL     -0.065848
     34 C13        -8.1750   -1.5180    1.0320 c         1 MOL      0.653027
     35 O7         -7.5200   -0.8660    0.1190 o         1 MOL     -0.655945
     36 O8         -8.2180   -2.7690    1.1030 o         1 MOL     -0.655945
     37 H13       -10.8200   -0.8380    0.0020 hn        1 MOL      0.131493
     38 H14       -10.3500    0.6020    2.6180 h1        1 MOL      0.118749
     39 H15        -9.2340   -1.4800    2.8490 hc        1 MOL      0.036469
     40 H16        -8.1710   -0.1480    2.7230 hc        1 MOL      0.036469
     41 N4         -8.8210    2.3560    1.4390 n         1 MOL     -0.327568
     42 C14        -8.2750    3.5470    0.8330 c3        1 MOL     -0.329017
     43 C15        -6.8980    3.4210    0.2030 c         1 MOL      0.948121
     44 O9         -6.6540    2.3440   -0.3630 o         1 MOL     -0.717606
     45 H17        -8.5770    2.1490    2.3990 hn        1 MOL      0.317293
     46 H18        -8.2060    4.3090    1.6190 h1        1 MOL      0.122463
     47 H19        -8.9220    3.8880    0.0230 h1        1 MOL      0.122463
     48 N5         -6.0480    4.4470    0.3190 n         1 MOL     -0.823422
     49 C16        -4.7390    4.4160   -0.3480 c3        1 MOL      0.231489
     50 C17        -3.5500    3.9320    0.4850 c         1 MOL      0.702989
     51 O10        -3.6770    3.7260    1.7070 o         1 MOL     -0.544382
     52 C18        -4.4070    5.8480   -0.8950 c3        1 MOL     -0.545182
     53 C19        -5.5620    6.6410   -1.5690 c         1 MOL      0.890731
     54 N6         -6.5130    7.2050   -0.9300 n         1 MOL     -0.873970
     55 O11        -5.5530    6.7960   -2.7670 o         1 MOL     -0.616614
     56 H20        -6.2700    5.1680    0.9960 hn        1 MOL      0.358753
     57 H21        -4.7970    3.7000   -1.1610 h1        1 MOL      0.073605
     58 H22        -3.5420    5.8010   -1.5470 hc        1 MOL      0.134940
     59 H23        -3.8980    6.4240   -0.1250 hc        1 MOL      0.134940
     60 H24        -6.6070    7.0290    0.0560 hn        1 MOL      0.383087
     61 H25        -7.2170    7.6620   -1.4970 hn        1 MOL      0.383087
     62 N7         -2.3880    3.6920   -0.1330 n         1 MOL     -0.673547
     63 C20        -1.1730    3.2100    0.6030 c3        1 MOL      0.178207
     64 C21        -1.3320    1.7380    1.0680 c         1 MOL      0.564657
     65 O12        -2.2460    1.0660    0.5670 o         1 MOL     -0.536103
     66 H26        -2.3290    3.8070   -1.1340 hn        1 MOL      0.349178
     67 H27        -0.9740    3.8850    1.4370 h1        1 MOL      0.049268
     68 H28        -0.2990    3.2760   -0.0420 h1        1 MOL      0.049268
     69 N8         -0.4350    1.2190    1.9160 n         1 MOL     -0.532370
     70 C22         0.3110    1.8700    3.0110 c3        1 MOL     -0.001008
     71 C23         1.7810    1.5180    3.1120 c         1 MOL      0.481551
     72 O13         2.5590    2.2000    3.8260 o         1 MOL     -0.566349
     73 C24        -0.3760    1.6910    4.3700 c3        1 MOL      0.467381
     74 C25        -1.5720    2.5510    4.4770 c3        1 MOL     -0.360328
     75 O14        -0.8070    0.4070    4.6870 oh        1 MOL     -0.642844
     76 H29        -0.5330    0.2210    1.9990 hn        1 MOL      0.342733
     77 H30         0.4560    2.9350    2.8450 h1        1 MOL      0.094304
     78 H31         0.3390    2.1270    5.0690 h1        1 MOL     -0.043730
     79 H32        -0.6320    0.2090    5.6090 ho        1 MOL      0.412895
     80 H33        -2.0980    2.3990    5.4230 hc        1 MOL      0.076369
     81 H34        -1.3670    3.6080    4.3550 hc        1 MOL      0.076369
     82 H35        -2.2230    2.2610    3.6540 hc        1 MOL      0.076369
     83 N9          2.2680    0.4700    2.3920 n         1 MOL     -0.446325
     84 C26         3.7110    0.0460    2.4250 c3        1 MOL      0.029219
     85 C27         4.1190   -0.5230    0.9760 c         1 MOL      0.455137
     86 O15         3.2660   -1.2160    0.3790 o         1 MOL     -0.560515
     87 C28         3.9560   -1.0090    3.4650 c3        1 MOL     -0.039562
     88 C29         3.6240   -0.5360    4.9460 c3        1 MOL      0.111525
     89 C30         5.4150   -1.4130    3.4830 c3        1 MOL     -0.107354
     90 C31         3.8000   -1.5850    6.0130 c3        1 MOL     -0.009215
     91 H36         1.6770   -0.0450    1.7640 hn        1 MOL      0.278215
     92 H37         4.3000    0.9240    2.6790 h1        1 MOL      0.139461
     93 H38         3.3810   -1.9260    3.3160 hc        1 MOL      0.031385
     94 H39         2.6030   -0.1640    4.9470 hc        1 MOL     -0.043344
     95 H40         4.2630    0.3140    5.2030 hc        1 MOL     -0.043344
     96 H41         5.5270   -2.2240    4.2030 hc        1 MOL      0.047891
     97 H42         5.7870   -1.6850    2.4920 hc        1 MOL      0.047891
     98 H43         5.9780   -0.5190    3.7500 hc        1 MOL      0.047891
     99 H44         3.1150   -2.4020    5.8200 hc        1 MOL     -0.007191
    100 H45         4.8280   -1.9240    6.1420 hc        1 MOL     -0.007191
    101 H46         3.4030   -1.1860    6.9490 hc        1 MOL     -0.007191
    102 N10         5.2820   -0.2250    0.4510 n         1 MOL     -0.186478
    103 C32         6.4220    0.6490    0.9190 c3        1 MOL      0.029192
    104 C33         7.7140    0.4070    0.1110 c         1 MOL      0.454133
    105 O16         7.6860   -0.2990   -0.8910 o         1 MOL     -0.485045
    106 C34         6.0260    2.1220    0.7460 c3        1 MOL     -0.156473
    107 C35         5.1760    2.4190   -0.4800 c         1 MOL      0.655133
    108 O17         3.9520    2.7450   -0.4020 o         1 MOL     -0.703313
    109 O18         5.7320    2.3520   -1.6030 o         1 MOL     -0.703313
    110 H47         5.4800   -0.6660   -0.4350 hn        1 MOL      0.235252
    111 H48         6.6760    0.4720    1.9660 h1        1 MOL      0.083276
    112 H49         6.8700    2.8030    0.8250 hc        1 MOL      0.003690
    113 H50         5.4620    2.3810    1.6470 hc        1 MOL      0.003690
    114 N11         8.8770    0.9390    0.4820 n         1 MOL     -0.569885
    115 C36        10.1050    0.9250   -0.3840 c3        1 MOL      0.559584
    116 C37        11.4120    0.3770    0.3180 c         1 MOL      0.197438
    117 O19        11.5190    0.5880    1.5890 o         1 MOL     -0.476113
    118 C38        10.4480    2.3650   -0.9350 c3        1 MOL     -0.415352
    119 C39        11.6060    2.4970   -1.8670 ca        1 MOL      0.215036
    120 C40        11.4540    2.2960   -3.2590 ca        1 MOL     -0.211033
    121 C41        12.8770    2.8140   -1.3710 ca        1 MOL     -0.211033
    122 C42        12.6220    2.3850   -4.0590 ca        1 MOL     -0.108473
    123 C43        14.0400    2.8650   -2.1850 ca        1 MOL     -0.108473
    124 C44        13.8920    2.6420   -3.5370 ca        1 MOL     -0.130629
    125 H51         8.8370    1.4740    1.3360 hn        1 MOL      0.305639
    126 H52         9.8850    0.3450   -1.2780 h1        1 MOL      0.006111
    127 H53        10.5060    3.0820   -0.1230 hc        1 MOL      0.120960
    128 H54         9.6360    2.6850   -1.5930 hc        1 MOL      0.120960
    129 H55        10.5100    1.9690   -3.6700 ha        1 MOL      0.146246
    130 H56        12.9160    2.9290   -0.2940 ha        1 MOL      0.146246
    131 H57        12.5370    2.1270   -5.1020 ha        1 MOL      0.105554
    132 H58        15.0150    3.0480   -1.7580 ha        1 MOL      0.105554
    133 H59        14.7950    2.6120   -4.1290 ha        1 MOL      0.098590
    134 N12        12.3430   -0.3170   -0.4330 n         1 MOL     -0.063037
    135 C45        12.0950   -0.9480   -1.7830 c3        1 MOL     -0.099978
    136 C46        10.8750   -1.8180   -1.8560 c         1 MOL      0.601388
    137 O20        10.3000   -1.9100   -2.9110 o         1 MOL     -0.567150
    138 C47        13.4620   -1.6380   -2.1910 c3        1 MOL      0.079711
    139 C48        14.4510   -0.6490   -1.5300 c3        1 MOL     -0.120818
    140 C49        13.7230   -0.2650   -0.1690 c3        1 MOL      0.053765
    141 H60        11.9910   -0.0710   -2.4260 h1        1 MOL      0.059120
    142 H61        13.4910   -2.6290   -1.7450 hc        1 MOL      0.012577
    143 H62        13.5250   -1.7870   -3.2660 hc        1 MOL      0.012577
    144 H63        15.4430   -1.0700   -1.4130 hc        1 MOL      0.029868
    145 H64        14.5240    0.2740   -2.1090 hc        1 MOL      0.029868
    146 H65        14.0640   -0.9480    0.6010 h1        1 MOL      0.019991
    147 H66        14.0530    0.6880    0.2320 h1        1 MOL      0.019991
    148 N13        10.5150   -2.5400   -0.8230 n         1 MOL     -0.392943
    149 C50         9.4030   -3.4100   -0.7640 c3        1 MOL     -0.015441
    150 C51         9.4640   -4.5400   -1.8320 c         1 MOL      0.503946
    151 O21        10.2490   -5.4830   -1.7270 o         1 MOL     -0.584158
    152 C52         9.2490   -3.8760    0.6490 c3        1 MOL      0.217289
    153 C53         8.7810   -2.8270    1.5820 c3        1 MOL     -0.015936
    154 C54         8.4990   -3.3950    3.0170 c         1 MOL      0.640211
    155 O22         9.0540   -2.8410    4.0090 o         1 MOL     -0.713272
    156 O23         7.7360   -4.3830    3.0800 o         1 MOL     -0.713272
    157 H67        11.0120   -2.3360    0.0350 hn        1 MOL      0.232022
    158 H68         8.5140   -2.7960   -0.9340 h1        1 MOL      0.097187
    159 H69        10.1410   -4.4240    0.9540 hc        1 MOL     -0.042922
    160 H70         8.5050   -4.6650    0.7130 hc        1 MOL     -0.042922
    161 H71         7.9270   -2.3150    1.1390 hc        1 MOL     -0.082468
    162 H72         9.5260   -2.0340    1.6940 hc        1 MOL     -0.082468
    163 N14         8.4920   -4.6790   -2.7590 n         1 MOL     -0.375978
    164 C55         7.4300   -3.7730   -3.3560 c3        1 MOL     -0.139597
    165 H73         7.8710   -2.8040   -3.5920 h1        1 MOL      0.085470
    166 H74         7.0360   -4.2240   -4.2670 h1        1 MOL      0.085470
    167 H75         6.6220   -3.6380   -2.6370 h1        1 MOL      0.085470
    168 H76         8.5480   -5.5200   -3.3290 hn        1 MOL      0.260494
    169 Ca1        -7.8370    0.2370   -2.1510 Ca        1 MOL      1.809696
    170 O24        -7.1880   -0.0460   -4.7760 oh        1 MOL     -0.828355
    171 H77        -6.5320   -0.7340   -4.8940 ho        1 MOL      0.415707
    172 H78        -7.6050    0.0370   -5.6380 ho        1 MOL      0.415707
    173 O25        -9.6930    1.3690   -3.5410 oh        1 MOL     -0.828355
    174 H79       -10.2270    0.8360   -4.1270 ho        1 MOL      0.415707
    175 H80       -10.2130    2.1540   -3.3860 ho        1 MOL      0.415707
    176 O26        -7.0950    2.5940   -3.1670 oh        1 MOL     -0.828355
    177 H81        -6.3030    2.6880   -3.7110 ho        1 MOL      0.415707
    178 H82        -7.6000    3.3800   -3.3280 ho        1 MOL      0.415707
    179 O27        -5.4020   -0.5570   -2.2820 oh        1 MOL     -0.828355
    180 H83        -5.0330   -1.2700   -1.7590 ho        1 MOL      0.415707
    181 H84        -4.7210    0.1110   -2.2890 ho        1 MOL      0.415707
@<TRIPOS>BOND
     1    1    2 1   
     2    1    4 1   
     3    1    5 1   
     4    1    6 1   
     5    2    3 2   
     6    2    7 1   
     7    7    8 1   
     8    7   15 1   
     9    8    9 1   
    10    8   11 1   
    11    8   16 1   
    12    9   10 2   
    13    9   19 1   
    14   11   12 1   
    15   11   17 1   
    16   11   18 1   
    17   12   13 1   
    18   12   14 1   
    19   19   20 1   
    20   19   24 1   
    21   20   21 1   
    22   20   23 1   
    23   20   25 1   
    24   21   22 2   
    25   21   29 1   
    26   23   26 1   
    27   23   27 1   
    28   23   28 1   
    29   29   30 1   
    30   29   37 1   
    31   30   31 1   
    32   30   33 1   
    33   30   38 1   
    34   31   32 2   
    35   31   41 1   
    36   33   34 1   
    37   33   39 1   
    38   33   40 1   
    39   34   35 1   
    40   34   36 1   
    41   41   42 1   
    42   41   45 1   
    43   42   43 1   
    44   42   46 1   
    45   42   47 1   
    46   43   44 2   
    47   43   48 1   
    48   48   49 1   
    49   48   56 1   
    50   49   50 1   
    51   49   52 1   
    52   49   57 1   
    53   50   51 2   
    54   50   62 1   
    55   52   53 1   
    56   52   58 1   
    57   52   59 1   
    58   53   54 1   
    59   53   55 2   
    60   54   60 1   
    61   54   61 1   
    62   62   63 1   
    63   62   66 1   
    64   63   64 1   
    65   63   67 1   
    66   63   68 1   
    67   64   65 2   
    68   64   69 1   
    69   69   70 1   
    70   69   76 1   
    71   70   71 1   
    72   70   73 1   
    73   70   77 1   
    74   71   72 2   
    75   71   83 1   
    76   73   74 1   
    77   73   75 1   
    78   73   78 1   
    79   74   80 1   
    80   74   81 1   
    81   74   82 1   
    82   75   79 1   
    83   83   84 1   
    84   83   91 1   
    85   84   85 1   
    86   84   87 1   
    87   84   92 1   
    88   85   86 2   
    89   85  102 1   
    90   87   88 1   
    91   87   89 1   
    92   87   93 1   
    93   88   90 1   
    94   88   94 1   
    95   88   95 1   
    96   89   96 1   
    97   89   97 1   
    98   89   98 1   
    99   90   99 1   
   100   90  100 1   
   101   90  101 1   
   102  102  103 1   
   103  102  110 1   
   104  103  104 1   
   105  103  106 1   
   106  103  111 1   
   107  104  105 2   
   108  104  114 1   
   109  106  107 1   
   110  106  112 1   
   111  106  113 1   
   112  107  108 1   
   113  107  109 1   
   114  114  115 1   
   115  114  125 1   
   116  115  116 1   
   117  115  118 1   
   118  115  126 1   
   119  116  117 2   
   120  116  134 1   
   121  118  119 1   
   122  118  127 1   
   123  118  128 1   
   124  119  120 ar  
   125  119  121 ar  
   126  120  122 ar  
   127  120  129 1   
   128  121  123 ar  
   129  121  130 1   
   130  122  124 ar  
   131  122  131 1   
   132  123  124 ar  
   133  123  132 1   
   134  124  133 1   
   135  134  135 1   
   136  134  140 1   
   137  135  136 1   
   138  135  138 1   
   139  135  141 1   
   140  136  137 2   
   141  136  148 1   
   142  138  139 1   
   143  138  142 1   
   144  138  143 1   
   145  139  140 1   
   146  139  144 1   
   147  139  145 1   
   148  140  146 1   
   149  140  147 1   
   150  148  149 1   
   151  148  157 1   
   152  149  150 1   
   153  149  152 1   
   154  149  158 1   
   155  150  151 2   
   156  150  163 1   
   157  152  153 1   
   158  152  159 1   
   159  152  160 1   
   160  153  154 1   
   161  153  161 1   
   162  153  162 1   
   163  154  155 1   
   164  154  156 1   
   165  163  164 1   
   166  163  168 1   
   167  164  165 1   
   168  164  166 1   
   169  164  167 1   
   170  170  171 1   
   171  170  172 1   
   172  173  174 1   
   173  173  175 1   
   174  176  177 1   
   175  176  178 1   
   176  179  180 1   
   177  179  181 1   
@<TRIPOS>SUBSTRUCTURE
     1 MOL         1 TEMP              0 ****  ****    0 ROOT
