@<TRIPOS>MOLECULE
MOL
  198   191     1     0     0
SMALL
resp


@<TRIPOS>ATOM
      1 C1         10.9720    4.9580   -4.1400 c3        1 MOL     -0.363671
      2 C2         10.0680    4.5010   -2.9630 c         1 MOL      0.750645
      3 O1          9.4770    3.4040   -3.0080 o         1 MOL     -0.599609
      4 H1         11.9130    5.3440   -3.7470 hc        1 MOL      0.089018
      5 H2         11.1730    4.1100   -4.7950 hc        1 MOL      0.089018
      6 H3         10.4670    5.7420   -4.7050 hc        1 MOL      0.089018
      7 N1         10.0650    5.3100   -1.9280 n         1 MOL     -0.547221
      8 C3          9.2090    5.2860   -0.7560 c3        1 MOL     -0.274050
      9 C4          9.3870    4.1460    0.1910 c         1 MOL      0.559861
     10 O2          8.7600    4.0760    1.2850 o         1 MOL     -0.520304
     11 C5          7.7390    5.4770   -1.1100 c3        1 MOL     -0.118441
     12 C6          7.6150    6.8250   -1.7530 c         1 MOL      0.689344
     13 O3          7.8100    7.8570   -0.9500 o         1 MOL     -0.662783
     14 O4          7.1100    6.9020   -2.9070 o         1 MOL     -0.662783
     15 H4         10.4220    6.2580   -2.0210 hn        1 MOL      0.338050
     16 H5          9.5800    6.0910   -0.1210 h1        1 MOL      0.148167
     17 H6          7.1110    5.4520   -0.2200 hc        1 MOL      0.079675
     18 H7          7.4240    4.6680   -1.7570 hc        1 MOL      0.079675
     19 N2         10.2920    3.1710   -0.1040 n         1 MOL     -0.241817
     20 C7         10.4440    1.9850    0.7660 c3        1 MOL     -0.035656
     21 C8          9.2290    1.1290    0.9800 c         1 MOL      0.484360
     22 O5          9.3310    0.1490    1.7190 o         1 MOL     -0.496990
     23 C9         11.2070    2.4040    2.0810 c3        1 MOL      0.074225
     24 C10        12.5700    3.0890    1.9050 c3        1 MOL     -0.176796
     25 C11        13.6040    2.0130    1.6870 c3        1 MOL      0.034546
     26 C12        13.9900    1.1890    2.9490 c3        1 MOL      0.064851
     27 N3         15.1790    0.3000    2.6740 n4        1 MOL     -0.261584
     28 H8         10.8450    3.3500   -0.9270 hn        1 MOL      0.196316
     29 H9         11.1780    1.3640    0.2670 h1        1 MOL      0.064766
     30 H10        11.2990    1.5160    2.7050 hc        1 MOL      0.017789
     31 H11        10.4840    3.0010    2.6330 hc        1 MOL      0.017789
     32 H12        12.8370    3.6660    2.7940 hc        1 MOL      0.058389
     33 H13        12.5960    3.8520    1.1160 hc        1 MOL      0.058389
     34 H14        14.5710    2.4600    1.4590 hc        1 MOL      0.010226
     35 H15        13.4450    1.3750    0.8110 hc        1 MOL      0.010226
     36 H16        13.0840    0.5930    3.0950 hx        1 MOL      0.058543
     37 H17        14.2110    1.8280    3.8080 hx        1 MOL      0.058543
     38 H18        14.9930   -0.4190    1.9800 hn        1 MOL      0.262707
     39 H19        16.0500    0.7740    2.4940 hn        1 MOL      0.262707
     40 H20        15.3530   -0.1060    3.5790 hn        1 MOL      0.262707
     41 N4          8.1490    1.3440    0.2410 n         1 MOL     -0.603976
     42 C13         6.9560    0.4140    0.2610 c3        1 MOL      0.441640
     43 C14         6.0860    0.6160   -0.9980 c         1 MOL      0.354382
     44 O6          5.3030    1.5530   -1.0760 o         1 MOL     -0.532334
     45 C15         6.0770    0.7250    1.5040 c3        1 MOL     -0.177646
     46 C16         5.0450   -0.3290    1.8360 c         1 MOL      0.764554
     47 O7          4.7630   -1.3400    1.1090 o         1 MOL     -0.740208
     48 O8          4.5990   -0.3330    2.9940 o         1 MOL     -0.740208
     49 H21         8.1770    2.1940   -0.3030 hn        1 MOL      0.321467
     50 H22         7.3080   -0.6250    0.3260 h1        1 MOL      0.061301
     51 H23         5.6080    1.7030    1.3660 hc        1 MOL      0.063631
     52 H24         6.7000    0.8640    2.3870 hc        1 MOL      0.063631
     53 N5          5.9390   -0.2700   -1.9800 n         1 MOL     -0.310825
     54 C17         6.9090   -1.2960   -2.3780 c3        1 MOL      0.025252
     55 C18         6.4850   -2.7480   -2.0710 c         1 MOL      0.449886
     56 O9          6.9020   -3.6810   -2.8210 o         1 MOL     -0.593178
     57 H25         5.2250   -0.0420   -2.6530 hn        1 MOL      0.279238
     58 H26         7.8570   -1.1440   -1.8800 h1        1 MOL      0.045203
     59 H27         7.0690   -1.2520   -3.4630 h1        1 MOL      0.045203
     60 N6          5.7910   -3.0400   -0.9870 n         1 MOL     -0.038609
     61 C19         5.4390   -4.4560   -0.6610 c3        1 MOL     -0.010055
     62 C20         3.9630   -4.6990   -0.3630 c         1 MOL      0.166497
     63 O10         3.3190   -3.9500    0.3470 o         1 MOL     -0.340311
     64 C21         6.3500   -5.0610    0.4640 c3        1 MOL     -0.205126
     65 C22         6.4350   -4.1360    1.6680 c         1 MOL      0.706176
     66 O11         5.5130   -4.2060    2.5100 o         1 MOL     -0.710205
     67 O12         7.4010   -3.3250    1.8210 o         1 MOL     -0.710205
     68 H28         5.5050   -2.3180   -0.3410 hn        1 MOL     -0.012735
     69 H29         5.6780   -5.0740   -1.5250 h1        1 MOL      0.066005
     70 H30         7.3340   -5.2150    0.0110 hc        1 MOL      0.057834
     71 H31         5.9830   -6.0270    0.8030 hc        1 MOL      0.057834
     72 N7          3.3750   -5.7610   -0.9240 n         1 MOL     -0.174024
     73 C23         1.9390   -6.0500   -0.9530 c3        1 MOL     -0.041873
     74 C24         1.1150   -5.2000   -1.9000 c         1 MOL      0.475700
     75 O13         0.4130   -5.7970   -2.7230 o         1 MOL     -0.514576
     76 H32         4.0050   -6.3960   -1.3960 hn        1 MOL      0.262883
     77 H33         1.5070   -5.9610    0.0410 h1        1 MOL      0.041768
     78 H34         1.8890   -7.0960   -1.2380 h1        1 MOL      0.041768
     79 N8          1.1410   -3.9180   -1.6700 n         1 MOL     -0.250036
     80 C25         0.3230   -2.8940   -2.2990 c3        1 MOL     -0.068691
     81 C26        -0.3450   -1.9720   -1.2930 c         1 MOL      0.510062
     82 O14        -0.1050   -2.0030   -0.0700 o         1 MOL     -0.682932
     83 C27         1.1130   -2.0070   -3.2590 c3        1 MOL      0.263121
     84 C28         2.2840   -1.2900   -2.5850 c3        1 MOL     -0.190330
     85 O15         1.6920   -2.8030   -4.2750 oh        1 MOL     -0.579541
     86 H35         1.7850   -3.5120   -1.0020 hn        1 MOL      0.221366
     87 H36        -0.4690   -3.3840   -2.8740 h1        1 MOL      0.085798
     88 H37         0.4870   -1.2680   -3.7580 h1        1 MOL     -0.015175
     89 H38         1.9640   -2.1620   -4.9300 ho        1 MOL      0.383217
     90 H39         3.2750   -1.6460   -2.8950 hc        1 MOL      0.055110
     91 H40         2.2090   -0.2060   -2.6260 hc        1 MOL      0.055110
     92 H41         2.3170   -1.4750   -1.5110 hc        1 MOL      0.055110
     93 N9         -1.2560   -1.1940   -1.8040 n         1 MOL     -0.039756
     94 C29        -1.8110    0.0250   -1.2110 c3        1 MOL     -0.388108
     95 C30        -3.1820   -0.0830   -0.5000 c         1 MOL      0.555641
     96 O16        -3.6620    0.8830    0.0700 o         1 MOL     -0.532884
     97 C31        -1.6170    1.2070   -2.1980 c3        1 MOL      0.308725
     98 C32        -2.6560    1.1000   -3.3360 c3        1 MOL     -0.038045
     99 C33        -0.2130    1.4370   -2.6170 c3        1 MOL     -0.170448
    100 C34        -2.7810    2.4840   -3.9800 c3        1 MOL     -0.121748
    101 H42        -1.4700   -1.4580   -2.7580 hn        1 MOL      0.170620
    102 H43        -1.1300    0.3680   -0.4390 h1        1 MOL      0.154663
    103 H44        -1.9230    2.0670   -1.5990 hc        1 MOL      0.008942
    104 H45        -3.6020    0.9020   -2.8450 hc        1 MOL      0.012087
    105 H46        -2.3660    0.3780   -4.1060 hc        1 MOL      0.012087
    106 H47         0.0810    2.4890   -2.5830 hc        1 MOL      0.048631
    107 H48         0.4870    1.0070   -1.8980 hc        1 MOL      0.048631
    108 H49        -0.0190    1.1070   -3.6340 hc        1 MOL      0.048631
    109 H50        -1.8060    2.7920   -4.3310 hc        1 MOL      0.034021
    110 H51        -3.5360    2.5490   -4.7670 hc        1 MOL      0.034021
    111 H52        -3.0720    3.2800   -3.2880 hc        1 MOL      0.034021
    112 N10        -3.9120   -1.2060   -0.6040 n         1 MOL     -0.243607
    113 C35        -5.2120   -1.6190   -0.0740 c3        1 MOL      0.007303
    114 C36        -6.2450   -1.9570   -1.1960 c         1 MOL      0.519678
    115 O17        -5.8760   -2.4120   -2.2710 o         1 MOL     -0.523638
    116 C37        -5.0430   -2.7250    0.9470 c3        1 MOL      0.430347
    117 C38        -4.0960   -2.4690    2.1210 c3        1 MOL     -0.342828
    118 O18        -6.3790   -2.8440    1.4550 oh        1 MOL     -0.632497
    119 H53        -3.3270   -1.8590   -1.1220 hn        1 MOL      0.108361
    120 H54        -5.6840   -0.8030    0.4680 h1        1 MOL      0.086750
    121 H55        -4.6940   -3.6650    0.5250 h1        1 MOL     -0.026518
    122 H56        -6.5090   -3.6960    1.8710 ho        1 MOL      0.389806
    123 H57        -4.5300   -1.6640    2.7050 hc        1 MOL      0.083581
    124 H58        -4.0060   -3.3800    2.7130 hc        1 MOL      0.083581
    125 H59        -3.1000   -2.1670    1.7730 hc        1 MOL      0.083581
    126 N11        -7.5640   -1.7590   -0.9520 n         1 MOL     -0.546803
    127 C39        -8.6710   -2.3060   -1.7740 c3        1 MOL      0.146947
    128 C40        -9.7960   -1.2600   -1.7490 c         1 MOL      0.597198
    129 O19       -10.3210   -0.9820   -2.8250 o         1 MOL     -0.567301
    130 C41        -9.2280   -3.6630   -1.2320 c3        1 MOL      0.161742
    131 C42       -10.4110   -4.0670   -2.0890 c3        1 MOL     -0.359063
    132 O20        -9.6220   -3.6250    0.1650 oh        1 MOL     -0.615055
    133 H60        -7.7730   -1.5670    0.0170 hn        1 MOL      0.314312
    134 H61        -8.3510   -2.5540   -2.7840 h1        1 MOL      0.097664
    135 H62        -8.4610   -4.4270   -1.3240 h1        1 MOL      0.061870
    136 H63       -10.1490   -4.4210    0.2950 ho        1 MOL      0.411970
    137 H64       -11.2320   -3.3560   -1.9680 hc        1 MOL      0.099837
    138 H65       -10.2150   -3.9880   -3.1640 hc        1 MOL      0.099837
    139 H66       -10.7140   -5.0670   -1.7670 hc        1 MOL      0.099837
    140 N12       -10.1710   -0.6670   -0.6130 n         1 MOL     -0.548114
    141 C43       -11.2420    0.2870   -0.4530 c3        1 MOL      0.225469
    142 C44       -10.9520    1.2110    0.7400 c         1 MOL      0.516053
    143 O21       -10.6210    0.7840    1.8460 o         1 MOL     -0.521602
    144 C45       -12.4840   -0.4830   -0.1890 c3        1 MOL     -0.256530
    145 C46       -13.6330    0.4470    0.1530 c3        1 MOL      0.006165
    146 C47       -14.9620   -0.2550   -0.0790 c3        1 MOL     -0.036923
    147 C48       -16.0520    0.7220    0.2130 c3        1 MOL      0.125509
    148 N13       -17.4170    0.1460    0.1140 n4        1 MOL     -0.225734
    149 H67        -9.6990   -0.9470    0.2320 hn        1 MOL      0.292666
    150 H68       -11.4190    0.8730   -1.3500 h1        1 MOL      0.050234
    151 H69       -12.3430   -1.3000    0.5310 hc        1 MOL      0.093912
    152 H70       -12.7260   -0.9960   -1.1120 hc        1 MOL      0.093912
    153 H71       -13.5450    1.4250   -0.3130 hc        1 MOL      0.049605
    154 H72       -13.5780    0.6160    1.2330 hc        1 MOL      0.049605
    155 H73       -15.1170   -1.1190    0.5680 hc        1 MOL      0.025068
    156 H74       -15.0610   -0.5630   -1.1200 hc        1 MOL      0.025068
    157 H75       -15.9240    1.5160   -0.5180 hx        1 MOL      0.043151
    158 H76       -15.9810    1.1740    1.2020 hx        1 MOL      0.043151
    159 H77       -17.6350   -0.3200   -0.7580 hn        1 MOL      0.230775
    160 H78       -17.5470   -0.5380    0.8530 hn        1 MOL      0.230775
    161 H79       -18.0870    0.8840    0.2690 hn        1 MOL      0.230775
    162 N14       -11.1170    2.5130    0.5870 n         1 MOL     -0.602409
    163 C49       -10.9480    3.5150    1.6210 c3        1 MOL      0.381635
    164 C50        -9.6140    3.5130    2.3900 c         1 MOL      0.468280
    165 O22        -9.6280    3.4950    3.6310 o         1 MOL     -0.563854
    166 C51       -11.1750    4.9660    1.0460 c3        1 MOL     -0.118619
    167 C52       -11.4820    6.0100    2.1640 c3        1 MOL     -0.080257
    168 C53       -11.3950    7.4620    1.7180 c         1 MOL      0.726650
    169 O23       -11.3780    7.6820    0.4800 o         1 MOL     -0.659325
    170 O24       -11.4310    8.3730    2.5340 o         1 MOL     -0.659325
    171 H80       -11.3980    2.8420   -0.3310 hn        1 MOL      0.285562
    172 H81       -11.6430    3.4030    2.4540 h1        1 MOL     -0.026588
    173 H82       -12.0680    4.8380    0.4410 hc        1 MOL      0.010614
    174 H83       -10.3020    5.2370    0.4570 hc        1 MOL      0.010614
    175 H84       -10.8900    5.9990    3.0700 hc        1 MOL      0.010461
    176 H85       -12.4980    5.7530    2.4570 hc        1 MOL      0.010461
    177 N15        -8.4070    3.4790    1.8260 n         1 MOL     -0.385300
    178 C54        -7.9360    3.8290    0.4320 c3        1 MOL     -0.039715
    179 H86        -6.8630    4.0210    0.4490 h1        1 MOL      0.066613
    180 H87        -8.1450    2.9990   -0.2430 h1        1 MOL      0.066613
    181 H88        -8.4580    4.7210    0.0840 h1        1 MOL      0.066613
    182 H89        -7.7240    3.6020    2.5570 hn        1 MOL      0.287801
    183 Ca1         3.2540   -2.7960    2.6510 Ca        1 MOL      1.637903
    184 O25         1.5840   -0.8080    1.7070 oh        1 MOL     -0.796759
    185 H90         1.0400   -0.3340    2.3360 ho        1 MOL      0.401396
    186 H91         0.9570   -1.3580    1.2260 ho        1 MOL      0.401396
    187 O26         4.4340   -2.4210    4.9900 oh        1 MOL     -0.796759
    188 H92         4.4070   -2.8320    5.8610 ho        1 MOL      0.401396
    189 H93         5.2940   -2.0170    4.9470 ho        1 MOL      0.401396
    190 O27         0.9540   -4.0090    1.8190 oh        1 MOL     -0.796759
    191 H94         0.3590   -4.5110    2.3590 ho        1 MOL      0.401396
    192 H95         0.4790   -3.8790    0.9950 ho        1 MOL      0.401396
    193 O28         2.6810   -4.9910    3.8990 oh        1 MOL     -0.796759
    194 O29         1.1950   -2.0870    4.7260 oh        1 MOL     -0.796759
    195 H96         2.4850   -4.8970    4.8270 ho        1 MOL      0.401396
    196 H97         1.4310   -1.4530    5.4040 ho        1 MOL      0.401396
    197 H98         2.9260   -5.9160    3.8050 ho        1 MOL      0.401396
    198 H99         0.2820   -1.8860    4.5150 ho        1 MOL      0.401396
@<TRIPOS>BOND
     1    1    2 1   
     2    1    4 1   
     3    1    5 1   
     4    1    6 1   
     5    2    3 2   
     6    2    7 1   
     7    7    8 1   
     8    7   15 1   
     9    8    9 1   
    10    8   11 1   
    11    8   16 1   
    12    9   10 2   
    13    9   19 1   
    14   11   12 1   
    15   11   17 1   
    16   11   18 1   
    17   12   13 1   
    18   12   14 1   
    19   19   20 1   
    20   19   28 1   
    21   20   21 1   
    22   20   23 1   
    23   20   29 1   
    24   21   22 2   
    25   21   41 1   
    26   23   24 1   
    27   23   30 1   
    28   23   31 1   
    29   24   25 1   
    30   24   32 1   
    31   24   33 1   
    32   25   26 1   
    33   25   34 1   
    34   25   35 1   
    35   26   27 1   
    36   26   36 1   
    37   26   37 1   
    38   27   38 1   
    39   27   39 1   
    40   27   40 1   
    41   41   42 1   
    42   41   49 1   
    43   42   43 1   
    44   42   45 1   
    45   42   50 1   
    46   43   44 2   
    47   43   53 1   
    48   45   46 1   
    49   45   51 1   
    50   45   52 1   
    51   46   47 1   
    52   46   48 1   
    53   53   54 1   
    54   53   57 1   
    55   54   55 1   
    56   54   58 1   
    57   54   59 1   
    58   55   56 2   
    59   55   60 1   
    60   60   61 1   
    61   60   68 1   
    62   61   62 1   
    63   61   64 1   
    64   61   69 1   
    65   62   63 2   
    66   62   72 1   
    67   64   65 1   
    68   64   70 1   
    69   64   71 1   
    70   65   66 1   
    71   65   67 1   
    72   72   73 1   
    73   72   76 1   
    74   73   74 1   
    75   73   77 1   
    76   73   78 1   
    77   74   75 2   
    78   74   79 1   
    79   79   80 1   
    80   79   86 1   
    81   80   81 1   
    82   80   83 1   
    83   80   87 1   
    84   81   82 2   
    85   81   93 1   
    86   83   84 1   
    87   83   85 1   
    88   83   88 1   
    89   84   90 1   
    90   84   91 1   
    91   84   92 1   
    92   85   89 1   
    93   93   94 1   
    94   93  101 1   
    95   94   95 1   
    96   94   97 1   
    97   94  102 1   
    98   95   96 2   
    99   95  112 1   
   100   97   98 1   
   101   97   99 1   
   102   97  103 1   
   103   98  100 1   
   104   98  104 1   
   105   98  105 1   
   106   99  106 1   
   107   99  107 1   
   108   99  108 1   
   109  100  109 1   
   110  100  110 1   
   111  100  111 1   
   112  112  113 1   
   113  112  119 1   
   114  113  114 1   
   115  113  116 1   
   116  113  120 1   
   117  114  115 2   
   118  114  126 1   
   119  116  117 1   
   120  116  118 1   
   121  116  121 1   
   122  117  123 1   
   123  117  124 1   
   124  117  125 1   
   125  118  122 1   
   126  126  127 1   
   127  126  133 1   
   128  127  128 1   
   129  127  130 1   
   130  127  134 1   
   131  128  129 2   
   132  128  140 1   
   133  130  131 1   
   134  130  132 1   
   135  130  135 1   
   136  131  137 1   
   137  131  138 1   
   138  131  139 1   
   139  132  136 1   
   140  140  141 1   
   141  140  149 1   
   142  141  142 1   
   143  141  144 1   
   144  141  150 1   
   145  142  143 2   
   146  142  162 1   
   147  144  145 1   
   148  144  151 1   
   149  144  152 1   
   150  145  146 1   
   151  145  153 1   
   152  145  154 1   
   153  146  147 1   
   154  146  155 1   
   155  146  156 1   
   156  147  148 1   
   157  147  157 1   
   158  147  158 1   
   159  148  159 1   
   160  148  160 1   
   161  148  161 1   
   162  162  163 1   
   163  162  171 1   
   164  163  164 1   
   165  163  166 1   
   166  163  172 1   
   167  164  165 2   
   168  164  177 1   
   169  166  167 1   
   170  166  173 1   
   171  166  174 1   
   172  167  168 1   
   173  167  175 1   
   174  167  176 1   
   175  168  169 1   
   176  168  170 1   
   177  177  178 1   
   178  177  182 1   
   179  178  179 1   
   180  178  180 1   
   181  178  181 1   
   182  184  185 1   
   183  184  186 1   
   184  187  188 1   
   185  187  189 1   
   186  190  191 1   
   187  190  192 1   
   188  193  195 1   
   189  193  197 1   
   190  194  196 1   
   191  194  198 1   
@<TRIPOS>SUBSTRUCTURE
     1 MOL         1 TEMP              0 ****  ****    0 ROOT
