@<TRIPOS>MOLECULE
MOL
  179   176     1     0     0
SMALL
resp


@<TRIPOS>ATOM
      1 C1          3.1200    1.7850    6.0840 c3        1 MOL     -0.265284
      2 C2          2.9430    1.8700    4.5460 c         1 MOL      0.687522
      3 O1          3.8610    1.7810    3.7200 o         1 MOL     -0.583045
      4 H1          2.2740    1.2500    6.5170 hc        1 MOL      0.069379
      5 H2          4.0430    1.2540    6.3150 hc        1 MOL      0.069379
      6 H3          3.1650    2.7910    6.5010 hc        1 MOL      0.069379
      7 N1          1.6570    2.0250    4.2290 n         1 MOL     -0.538151
      8 C3          1.0810    2.0760    2.8490 c3        1 MOL      0.011085
      9 C4          1.6570    3.2500    2.0490 c         1 MOL      0.757502
     10 O2          1.5380    4.3550    2.5760 o         1 MOL     -0.592449
     11 C5         -0.4810    2.0850    3.0500 c3        1 MOL     -0.086491
     12 C6         -1.1300    1.9740    1.6830 c         1 MOL      0.895000
     13 O3         -2.3630    1.8370    1.6250 o         1 MOL     -0.788351
     14 O4         -0.4140    1.9300    0.6810 o         1 MOL     -0.788351
     15 H4          1.0320    1.9560    5.0150 hn        1 MOL      0.297950
     16 H5          1.2920    1.1470    2.3090 h1        1 MOL      0.022472
     17 H6         -0.7830    2.9460    3.6410 hc        1 MOL      0.015261
     18 H7         -0.7160    1.2070    3.6470 hc        1 MOL      0.015261
     19 N2          2.3410    2.9700    0.9430 n         1 MOL     -0.564342
     20 C7          2.8790    4.0950    0.1310 c3        1 MOL     -0.134295
     21 C8          1.8620    5.0290   -0.6070 c         1 MOL      0.498881
     22 O5          2.1640    6.1510   -0.9310 o         1 MOL     -0.544112
     23 C9          4.0420    3.5470   -0.7000 c3        1 MOL      0.096696
     24 C10         4.8560    4.4490   -1.5740 c3        1 MOL     -0.261534
     25 C11         5.6000    5.4950   -0.7630 c3        1 MOL     -0.020512
     26 C12         6.3350    6.3710   -1.7600 c3        1 MOL      0.113919
     27 N3          7.1800    7.4710   -1.1660 n4        1 MOL     -0.455575
     28 H8          2.3770    1.9870    0.7380 hn        1 MOL      0.343149
     29 H9          3.4160    4.7800    0.7740 h1        1 MOL      0.131332
     30 H10         3.5920    2.6910   -1.2100 hc        1 MOL      0.058077
     31 H11         4.7560    2.9810   -0.1040 hc        1 MOL      0.058077
     32 H12         4.1670    5.0490   -2.1680 hc        1 MOL      0.066236
     33 H13         5.4940    3.7780   -2.1480 hc        1 MOL      0.066236
     34 H14         6.2690    4.8600   -0.1810 hc        1 MOL      0.047143
     35 H15         4.8960    5.9720   -0.0830 hc        1 MOL      0.047143
     36 H16         5.7610    6.7700   -2.5930 hx        1 MOL      0.085572
     37 H17         7.0440    5.7750   -2.3390 hx        1 MOL      0.085572
     38 H18         7.6620    7.1060   -0.3580 hn        1 MOL      0.346130
     39 H19         7.7790    7.8630   -1.8750 hn        1 MOL      0.346130
     40 H20         6.6440    8.2750   -0.8850 hn        1 MOL      0.346130
     41 N4          0.6440    4.5950   -0.8580 n         1 MOL     -0.283335
     42 C13        -0.3520    5.2170   -1.7200 c3        1 MOL      0.124343
     43 C14        -1.5860    5.7650   -0.9380 c         1 MOL      0.429264
     44 O6         -2.3400    6.6090   -1.4230 o         1 MOL     -0.548964
     45 C15        -0.7370    4.1800   -2.8140 c3        1 MOL     -0.298471
     46 C16        -1.0440    2.8020   -2.2730 c         1 MOL      0.797919
     47 O7         -2.0600    2.6380   -1.5760 o         1 MOL     -0.795603
     48 O8         -0.3550    1.7840   -2.4660 o         1 MOL     -0.795603
     49 H21         0.4660    3.6920   -0.4370 hn        1 MOL      0.242022
     50 H22         0.1070    6.1210   -2.1030 h1        1 MOL      0.073179
     51 H23         0.2550    4.1510   -3.2560 hc        1 MOL      0.089554
     52 H24        -1.4630    4.5890   -3.5130 hc        1 MOL      0.089554
     53 N5         -1.9020    5.2000    0.1930 n         1 MOL     -0.203653
     54 C17        -3.1270    5.4580    1.0280 c3        1 MOL     -0.105456
     55 C18        -4.4550    5.0330    0.4210 c         1 MOL      0.540269
     56 O9         -5.4770    5.6010    0.7720 o         1 MOL     -0.543399
     57 H25        -1.3620    4.3750    0.4370 hn        1 MOL      0.062633
     58 H26        -3.0720    6.5070    1.2950 h1        1 MOL      0.103897
     59 H27        -2.9930    4.9690    1.9840 h1        1 MOL      0.103897
     60 N6         -4.3470    3.9070   -0.3530 n         1 MOL     -0.464571
     61 C19        -5.4330    3.3110   -1.1190 c3        1 MOL      0.409210
     62 C20        -5.4840    1.7810   -1.0680 c         1 MOL      0.203562
     63 O10        -4.4330    1.1530   -0.7920 o         1 MOL     -0.427899
     64 C21        -5.5050    3.8520   -2.5400 c3        1 MOL     -0.420042
     65 C22        -5.1840    2.7510   -3.5610 c         1 MOL      0.643876
     66 N7         -4.0340    2.1550   -3.4910 n         1 MOL     -0.683653
     67 O11        -6.0740    2.2870   -4.2280 o         1 MOL     -0.608029
     68 H28        -3.4220    3.5410   -0.5000 hn        1 MOL      0.362991
     69 H29        -6.3440    3.6340   -0.6230 h1        1 MOL      0.005345
     70 H30        -4.6900    4.5590   -2.6570 hc        1 MOL      0.131893
     71 H31        -6.4900    4.2820   -2.7310 hc        1 MOL      0.131893
     72 H32        -3.4140    2.3840   -2.7270 hn        1 MOL      0.319826
     73 H33        -3.8230    1.3780   -4.0950 hn        1 MOL      0.319826
     74 N8         -6.5790    1.1210   -1.3410 n         1 MOL     -0.239815
     75 C23        -6.7410   -0.3140   -1.6440 c3        1 MOL     -0.100302
     76 C24        -6.3250   -1.1760   -0.4890 c         1 MOL      0.498087
     77 O12        -6.5990   -0.9930    0.6760 o         1 MOL     -0.470342
     78 H34        -7.4000    1.7040   -1.2670 hn        1 MOL      0.269111
     79 H35        -6.1940   -0.6610   -2.5190 h1        1 MOL      0.096896
     80 H36        -7.7930   -0.4860   -1.8660 h1        1 MOL      0.096896
     81 N9         -5.4450   -2.1550   -0.8060 n         1 MOL     -0.388372
     82 C25        -4.6390   -2.8780    0.2230 c3        1 MOL     -0.022553
     83 C26        -3.6620   -2.1530    1.2070 c         1 MOL      0.562387
     84 O13        -3.2120   -1.0510    0.8590 o         1 MOL     -0.423226
     85 C27        -3.8170   -4.0260   -0.4370 c3        1 MOL     -0.077343
     86 C28        -4.6750   -5.0070   -1.1830 ca        1 MOL     -0.027863
     87 C29        -4.4610   -5.2300   -2.5870 ca        1 MOL     -0.094560
     88 C30        -5.5790   -5.8780   -0.4820 ca        1 MOL     -0.094560
     89 C31        -5.1280   -6.2710   -3.2190 ca        1 MOL     -0.277899
     90 C32        -6.1700   -6.9610   -1.1310 ca        1 MOL     -0.277899
     91 C33        -5.9710   -7.1010   -2.5530 ca        1 MOL      0.356416
     92 O14        -6.5190   -8.1200   -3.3250 oh        1 MOL     -0.506899
     93 H37        -5.3070   -2.5220   -1.7440 hn        1 MOL      0.236745
     94 H38        -5.3560   -3.3620    0.8780 h1        1 MOL      0.058283
     95 H39        -3.1560   -4.5230    0.2700 hc        1 MOL      0.023656
     96 H40        -3.1860   -3.5780   -1.2080 hc        1 MOL      0.023656
     97 H41        -3.8610   -4.5970   -3.2210 ha        1 MOL      0.119762
     98 H42        -5.7590   -5.9170    0.5800 ha        1 MOL      0.119762
     99 H43        -4.8620   -6.5590   -4.2220 ha        1 MOL      0.161219
    100 H44        -6.8090   -7.6460   -0.6000 ha        1 MOL      0.161219
    101 H45        -7.0510   -8.7640   -2.8480 ho        1 MOL      0.383723
    102 N10        -3.2350   -2.8000    2.2830 n         1 MOL     -0.433483
    103 C34        -2.2500   -2.3310    3.2520 c3        1 MOL      0.061354
    104 C35        -0.7950   -1.8100    2.8050 c         1 MOL      0.405495
    105 O15        -0.6950   -1.0190    1.8940 o         1 MOL     -0.593741
    106 C36        -2.9010   -1.3570    4.2490 c3        1 MOL      0.207134
    107 C37        -2.0900   -1.1040    5.5610 c3        1 MOL      0.030948
    108 C38        -4.3530   -1.6890    4.4990 c3        1 MOL     -0.197282
    109 C39        -2.0280   -2.3360    6.4550 c3        1 MOL     -0.317149
    110 H46        -3.6470   -3.7000    2.4640 hn        1 MOL      0.280082
    111 H47        -2.0560   -3.2150    3.8530 h1        1 MOL      0.006732
    112 H48        -2.7340   -0.3700    3.8010 hc        1 MOL     -0.043680
    113 H49        -2.5190   -0.2710    6.1170 hc        1 MOL      0.034706
    114 H50        -1.0810   -0.7800    5.2990 hc        1 MOL      0.034706
    115 H51        -4.7870   -0.9920    5.2070 hc        1 MOL      0.054612
    116 H52        -4.9830   -1.7530    3.6100 hc        1 MOL      0.054612
    117 H53        -4.4600   -2.6500    4.9910 hc        1 MOL      0.054612
    118 H54        -1.1040   -2.8570    6.2340 hc        1 MOL      0.068160
    119 H55        -2.1650   -2.1000    7.5150 hc        1 MOL      0.068160
    120 H56        -2.9120   -2.9180    6.2080 hc        1 MOL      0.068160
    121 N11         0.2030   -2.3380    3.4650 n         1 MOL     -0.379128
    122 C40         1.5760   -1.8080    3.4750 c3        1 MOL     -0.030196
    123 C41         2.3580   -1.9270    2.1540 c         1 MOL      0.406942
    124 O16         3.5860   -1.7130    2.2110 o         1 MOL     -0.528382
    125 C42         2.4230   -2.5980    4.5570 c3        1 MOL      0.003298
    126 O17         1.9330   -2.6560    5.8260 oh        1 MOL     -0.594732
    127 H57        -0.0290   -3.1300    4.0540 hn        1 MOL      0.281199
    128 H58         1.4620   -0.7640    3.7640 h1        1 MOL      0.190387
    129 H59         3.3950   -2.1230    4.6660 h1        1 MOL      0.123740
    130 H60         2.4810   -3.6570    4.2720 h1        1 MOL      0.123740
    131 H61         1.3950   -3.4360    5.9770 ho        1 MOL      0.407881
    132 N12         1.7940   -2.3040    1.0290 n         1 MOL     -0.397492
    133 C43         2.3630   -2.2030   -0.3090 c3        1 MOL      0.389130
    134 C44         2.0450   -0.9070   -1.1240 c         1 MOL      0.412669
    135 O18         0.9740   -0.3900   -0.9710 o         1 MOL     -0.479597
    136 C45         2.1200   -3.4940   -1.0500 c3        1 MOL     -0.315284
    137 H62         0.7830   -2.3330    1.0950 hn        1 MOL      0.200516
    138 H63         3.4440   -2.2380   -0.1690 h1        1 MOL      0.060092
    139 H64         1.1310   -3.9020   -0.8250 hc        1 MOL      0.059977
    140 H65         2.1640   -3.2130   -2.0980 hc        1 MOL      0.059977
    141 H66         2.7860   -4.3030   -0.7600 hc        1 MOL      0.059977
    142 N13         2.9270   -0.4470   -1.9740 n         1 MOL     -0.483783
    143 C46         4.3180   -0.7950   -2.1880 c3        1 MOL     -0.043051
    144 C47         4.5930   -2.2870   -2.6770 c         1 MOL      0.996434
    145 O19         3.9540   -2.6060   -3.6580 o         1 MOL     -0.651780
    146 C48         5.0590    0.1880   -3.0870 c3        1 MOL     -0.251872
    147 H67         2.4310    0.2010   -2.5760 hn        1 MOL      0.345856
    148 H68         4.8320   -0.5010   -1.2630 h1        1 MOL      0.055038
    149 H69         4.6990    1.1830   -2.8070 hc        1 MOL      0.084947
    150 H70         6.1410    0.1130   -2.9580 hc        1 MOL      0.084947
    151 H71         5.0260    0.0860   -4.1770 hc        1 MOL      0.084947
    152 N14         5.3890   -3.0850   -2.0080 n         1 MOL     -0.798898
    153 C49         6.2280   -2.8930   -0.7520 c3        1 MOL     -0.011940
    154 C50         6.4130   -4.2090    0.0470 c         1 MOL      0.533363
    155 O20         6.4430   -4.0570    1.3200 o         1 MOL     -0.559306
    156 C51         7.5260   -2.1810   -1.1640 c3        1 MOL      0.089923
    157 C52         8.5100   -3.1410   -1.8440 c3        1 MOL     -0.124505
    158 C53         8.0790   -3.5880   -3.2060 c         1 MOL      0.630576
    159 O21         8.4380   -2.8830   -4.1960 o         1 MOL     -0.657039
    160 O22         7.3440   -4.5930   -3.4310 o         1 MOL     -0.657039
    161 H72         5.6890   -3.8640   -2.5750 hn        1 MOL      0.323454
    162 H73         5.7150   -2.2720   -0.0210 h1        1 MOL      0.080862
    163 H74         7.9720   -1.8220   -0.2400 hc        1 MOL     -0.005813
    164 H75         7.4190   -1.3820   -1.9030 hc        1 MOL     -0.005813
    165 H76         8.7580   -3.9260   -1.1310 hc        1 MOL      0.010518
    166 H77         9.5180   -2.7340   -1.8770 hc        1 MOL      0.010518
    167 N15         6.5210   -5.4240   -0.5010 n         1 MOL     -0.204720
    168 C54         6.7280   -6.6430    0.3130 c3        1 MOL     -0.162839
    169 H78         5.8810   -6.7770    0.9850 h1        1 MOL      0.081221
    170 H79         6.8110   -7.5090   -0.3440 h1        1 MOL      0.081221
    171 H80         7.6430   -6.5400    0.8970 h1        1 MOL      0.081221
    172 H81         6.6460   -5.4430   -1.5030 hn        1 MOL      0.193479
    173 Ca1        -1.6800    0.2300   -0.6830 Ca        1 MOL      1.769001
    174 O23        -0.9300   -2.6220   -0.7070 oh        1 MOL     -0.867465
    175 H82        -0.5450   -2.9190   -1.5310 ho        1 MOL      0.430091
    176 H83        -0.7980   -3.3600   -0.1010 ho        1 MOL      0.430091
    177 O24        -2.7200   -1.3400   -2.4100 oh        1 MOL     -0.867465
    178 H84        -2.2020   -1.9900   -2.9010 ho        1 MOL      0.430091
    179 H85        -3.6060   -1.4470   -2.7340 ho        1 MOL      0.430091
@<TRIPOS>BOND
     1    1    2 1   
     2    1    4 1   
     3    1    5 1   
     4    1    6 1   
     5    2    3 2   
     6    2    7 1   
     7    7    8 1   
     8    7   15 1   
     9    8    9 1   
    10    8   11 1   
    11    8   16 1   
    12    9   10 2   
    13    9   19 1   
    14   11   12 1   
    15   11   17 1   
    16   11   18 1   
    17   12   13 1   
    18   12   14 1   
    19   19   20 1   
    20   19   28 1   
    21   20   21 1   
    22   20   23 1   
    23   20   29 1   
    24   21   22 2   
    25   21   41 1   
    26   23   24 1   
    27   23   30 1   
    28   23   31 1   
    29   24   25 1   
    30   24   32 1   
    31   24   33 1   
    32   25   26 1   
    33   25   34 1   
    34   25   35 1   
    35   26   27 1   
    36   26   36 1   
    37   26   37 1   
    38   27   38 1   
    39   27   39 1   
    40   27   40 1   
    41   41   42 1   
    42   41   49 1   
    43   42   43 1   
    44   42   45 1   
    45   42   50 1   
    46   43   44 2   
    47   43   53 1   
    48   45   46 1   
    49   45   51 1   
    50   45   52 1   
    51   46   47 1   
    52   46   48 1   
    53   53   54 1   
    54   53   57 1   
    55   54   55 1   
    56   54   58 1   
    57   54   59 1   
    58   55   56 2   
    59   55   60 1   
    60   60   61 1   
    61   60   68 1   
    62   61   62 1   
    63   61   64 1   
    64   61   69 1   
    65   62   63 2   
    66   62   74 1   
    67   64   65 1   
    68   64   70 1   
    69   64   71 1   
    70   65   66 1   
    71   65   67 2   
    72   66   72 1   
    73   66   73 1   
    74   74   75 1   
    75   74   78 1   
    76   75   76 1   
    77   75   79 1   
    78   75   80 1   
    79   76   77 2   
    80   76   81 1   
    81   81   82 1   
    82   81   93 1   
    83   82   83 1   
    84   82   85 1   
    85   82   94 1   
    86   83   84 2   
    87   83  102 1   
    88   85   86 1   
    89   85   95 1   
    90   85   96 1   
    91   86   87 ar  
    92   86   88 ar  
    93   87   89 ar  
    94   87   97 1   
    95   88   90 ar  
    96   88   98 1   
    97   89   91 ar  
    98   89   99 1   
    99   90   91 ar  
   100   90  100 1   
   101   91   92 1   
   102   92  101 1   
   103  102  103 1   
   104  102  110 1   
   105  103  104 1   
   106  103  106 1   
   107  103  111 1   
   108  104  105 2   
   109  104  121 1   
   110  106  107 1   
   111  106  108 1   
   112  106  112 1   
   113  107  109 1   
   114  107  113 1   
   115  107  114 1   
   116  108  115 1   
   117  108  116 1   
   118  108  117 1   
   119  109  118 1   
   120  109  119 1   
   121  109  120 1   
   122  121  122 1   
   123  121  127 1   
   124  122  123 1   
   125  122  125 1   
   126  122  128 1   
   127  123  124 2   
   128  123  132 1   
   129  125  126 1   
   130  125  129 1   
   131  125  130 1   
   132  126  131 1   
   133  132  133 1   
   134  132  137 1   
   135  133  134 1   
   136  133  136 1   
   137  133  138 1   
   138  134  135 2   
   139  134  142 1   
   140  136  139 1   
   141  136  140 1   
   142  136  141 1   
   143  142  143 1   
   144  142  147 1   
   145  143  144 1   
   146  143  146 1   
   147  143  148 1   
   148  144  145 2   
   149  144  152 1   
   150  146  149 1   
   151  146  150 1   
   152  146  151 1   
   153  152  153 1   
   154  152  161 1   
   155  153  154 1   
   156  153  156 1   
   157  153  162 1   
   158  154  155 2   
   159  154  167 1   
   160  156  157 1   
   161  156  163 1   
   162  156  164 1   
   163  157  158 1   
   164  157  165 1   
   165  157  166 1   
   166  158  159 1   
   167  158  160 1   
   168  167  168 1   
   169  167  172 1   
   170  168  169 1   
   171  168  170 1   
   172  168  171 1   
   173  174  175 1   
   174  174  176 1   
   175  177  178 1   
   176  177  179 1   
@<TRIPOS>SUBSTRUCTURE
     1 MOL         1 TEMP              0 ****  ****    0 ROOT
