@<TRIPOS>MOLECULE
MOL
  179   176     1     0     0
SMALL
resp


@<TRIPOS>ATOM
      1 C1          3.2850    0.9730    6.2580 c3        1 MOL     -0.336160
      2 C2          3.1150    1.1230    4.6840 c         1 MOL      0.745839
      3 O1          4.0050    0.9330    3.8690 o         1 MOL     -0.581933
      4 H1          2.8340    1.8320    6.7540 hc        1 MOL      0.089682
      5 H2          2.7900    0.0610    6.5920 hc        1 MOL      0.089682
      6 H3          4.3450    0.9260    6.5060 hc        1 MOL      0.089682
      7 N1          1.9320    1.6020    4.2960 n         1 MOL     -0.662891
      8 C3          1.3850    1.8260    2.9770 c3        1 MOL      0.079573
      9 C4          2.2040    2.9340    2.2520 c         1 MOL      0.900367
     10 O2          2.4530    3.9570    2.9310 o         1 MOL     -0.602922
     11 C5         -0.1340    2.0450    3.0040 c3        1 MOL      0.131564
     12 C6         -0.6720    1.8220    1.5710 c         1 MOL      0.624303
     13 O3         -1.9200    1.5910    1.3160 o         1 MOL     -0.775710
     14 O4          0.0660    1.8370    0.5920 o         1 MOL     -0.775710
     15 H4          1.3070    1.8850    5.0300 hn        1 MOL      0.318160
     16 H5          1.4210    0.9250    2.3530 h1        1 MOL     -0.004793
     17 H6         -0.2230    3.1270    3.1480 hc        1 MOL     -0.037930
     18 H7         -0.6240    1.5120    3.8250 hc        1 MOL     -0.037930
     19 N2          2.5080    2.7440    0.9550 n         1 MOL     -0.881726
     20 C7          3.4050    3.5780    0.1250 c3        1 MOL      0.151622
     21 C8          2.5950    4.5360   -0.7540 c         1 MOL      0.414549
     22 O5          3.1370    5.3310   -1.4860 o         1 MOL     -0.532240
     23 C9          4.4340    2.6790   -0.5900 c3        1 MOL      0.142757
     24 C10         5.6530    3.4880   -1.0200 c3        1 MOL     -0.363351
     25 C11         6.7150    2.4370   -1.5400 c3        1 MOL      0.248117
     26 C12         7.9880    3.1480   -1.7970 c3        1 MOL     -0.078317
     27 N3          9.0580    2.2160   -2.2250 n4        1 MOL     -0.143208
     28 H8          2.2720    1.8410    0.5810 hn        1 MOL      0.384216
     29 H9          3.9590    4.2760    0.7550 h1        1 MOL      0.076272
     30 H10         3.9860    2.1050   -1.3970 hc        1 MOL      0.027031
     31 H11         4.7220    1.9660    0.1920 hc        1 MOL      0.027031
     32 H12         5.9950    3.9880   -0.1140 hc        1 MOL      0.106331
     33 H13         5.5230    4.2620   -1.7790 hc        1 MOL      0.106331
     34 H14         6.4290    1.9610   -2.4740 hc        1 MOL     -0.059709
     35 H15         6.7180    1.6480   -0.7910 hc        1 MOL     -0.059709
     36 H16         8.2680    3.6460   -0.8660 hx        1 MOL      0.087448
     37 H17         7.8230    3.8230   -2.6400 hx        1 MOL      0.087448
     38 H18         8.6790    1.5740   -2.9040 hn        1 MOL      0.244399
     39 H19         9.9220    2.6220   -2.5520 hn        1 MOL      0.244399
     40 H20         9.3550    1.6340   -1.4540 hn        1 MOL      0.244399
     41 N4          1.2850    4.3250   -0.7850 n         1 MOL     -0.293813
     42 C13         0.3090    5.0460   -1.6270 c3        1 MOL      0.063477
     43 C14        -0.9740    5.5840   -0.8020 c         1 MOL      0.381107
     44 O6         -1.6320    6.5550   -1.0840 o         1 MOL     -0.511837
     45 C15        -0.2560    4.2300   -2.8570 c3        1 MOL     -0.375834
     46 C16        -0.8530    2.8690   -2.4810 c         1 MOL      0.772981
     47 O7         -1.8680    2.8750   -1.6810 o         1 MOL     -0.757325
     48 O8         -0.3620    1.7580   -2.6940 o         1 MOL     -0.757325
     49 H21         1.0340    3.5600   -0.1660 hn        1 MOL      0.365602
     50 H22         0.8270    5.9590   -1.9300 h1        1 MOL      0.099519
     51 H23         0.5220    3.9380   -3.5680 hc        1 MOL      0.110598
     52 H24        -1.0540    4.7910   -3.3610 hc        1 MOL      0.110598
     53 N5         -1.0840    4.8840    0.3350 n         1 MOL     -0.036818
     54 C17        -1.9970    5.1200    1.4590 c3        1 MOL     -0.231220
     55 C18        -3.4370    4.6900    1.1250 c         1 MOL      0.552012
     56 O9         -4.3010    4.9050    1.9440 o         1 MOL     -0.555277
     57 H25        -0.4520    4.0950    0.3680 hn        1 MOL     -0.029238
     58 H26        -1.9040    6.1820    1.6650 h1        1 MOL      0.120311
     59 H27        -1.5940    4.5440    2.2830 h1        1 MOL      0.120311
     60 N6         -3.7620    3.9670    0.0290 n         1 MOL     -0.142308
     61 C19        -5.0600    3.7750   -0.4930 c3        1 MOL     -0.083421
     62 C20        -5.2200    2.3780   -1.1810 c         1 MOL      0.640564
     63 O10        -4.2810    1.6530   -1.3490 o         1 MOL     -0.555716
     64 C21        -5.4270    4.8860   -1.4820 c3        1 MOL     -0.315173
     65 C22        -5.5580    6.2600   -0.7630 c         1 MOL      0.730066
     66 N7         -4.5890    7.1010   -0.8380 n         1 MOL     -0.817364
     67 O11        -6.5840    6.5110   -0.1920 o         1 MOL     -0.587681
     68 H28        -2.9570    3.6380   -0.4960 hn        1 MOL      0.235359
     69 H29        -5.7340    3.6940    0.3610 h1        1 MOL      0.064196
     70 H30        -6.4110    4.6170   -1.8580 hc        1 MOL      0.074636
     71 H31        -4.6730    4.9500   -2.2670 hc        1 MOL      0.074636
     72 H32        -3.6970    6.8270   -1.2250 hn        1 MOL      0.372104
     73 H33        -4.6220    7.8280   -0.1270 hn        1 MOL      0.372104
     74 N8         -6.4550    2.0710   -1.4350 n         1 MOL     -0.404726
     75 C23        -6.9210    0.7280   -1.7070 c3        1 MOL     -0.234022
     76 C24        -6.5120   -0.2470   -0.6600 c         1 MOL      0.598467
     77 O12        -6.5710    0.0420    0.4950 o         1 MOL     -0.478384
     78 H34        -7.1690    2.6280   -0.9810 hn        1 MOL      0.343445
     79 H35        -6.4640    0.3600   -2.6210 h1        1 MOL      0.115584
     80 H36        -8.0010    0.6860   -1.8490 h1        1 MOL      0.115584
     81 N9         -6.0030   -1.4470   -1.0130 n         1 MOL     -0.525853
     82 C25        -5.3410   -2.4620   -0.1780 c3        1 MOL      0.266127
     83 C26        -4.0730   -1.9730    0.5330 c         1 MOL      0.385945
     84 O13        -3.6410   -0.8200    0.3700 o         1 MOL     -0.444488
     85 C27        -4.9730   -3.6740   -1.0980 c3        1 MOL     -0.227238
     86 C28        -6.1200   -4.6660   -1.4250 ca        1 MOL      0.120851
     87 C29        -6.6660   -4.7170   -2.7120 ca        1 MOL     -0.190716
     88 C30        -6.5780   -5.5300   -0.4340 ca        1 MOL     -0.190716
     89 C31        -7.6810   -5.6300   -3.0080 ca        1 MOL     -0.243155
     90 C32        -7.6320   -6.4810   -0.7010 ca        1 MOL     -0.243155
     91 C33        -8.1740   -6.5130   -1.9910 ca        1 MOL      0.341011
     92 O14        -9.2160   -7.3650   -2.2650 oh        1 MOL     -0.508849
     93 H37        -5.9150   -1.6720   -1.9980 hn        1 MOL      0.264768
     94 H38        -5.9940   -2.8060    0.6230 h1        1 MOL      0.019266
     95 H39        -4.1870   -4.2830   -0.6470 hc        1 MOL      0.043806
     96 H40        -4.5870   -3.3160   -2.0480 hc        1 MOL      0.043806
     97 H41        -6.2570   -4.1350   -3.5250 ha        1 MOL      0.137781
     98 H42        -6.1820   -5.4320    0.5610 ha        1 MOL      0.137781
     99 H43        -8.1340   -5.6200   -3.9850 ha        1 MOL      0.157596
    100 H44        -7.9740   -7.2090    0.0190 ha        1 MOL      0.157596
    101 H45        -9.4100   -8.1050   -1.6730 ho        1 MOL      0.385660
    102 N10        -3.5690   -2.7910    1.4690 n         1 MOL     -0.299312
    103 C34        -2.5710   -2.5770    2.5320 c3        1 MOL      0.019769
    104 C35        -1.1100   -2.2870    2.1160 c         1 MOL      0.537188
    105 O15        -0.8380   -1.3680    1.3300 o         1 MOL     -0.514550
    106 C36        -3.1350   -1.5600    3.5140 c3        1 MOL      0.206276
    107 C37        -2.1590   -1.4620    4.7280 c3        1 MOL     -0.496921
    108 C38        -4.5990   -1.8650    3.9630 c3        1 MOL     -0.251783
    109 C39        -2.1500   -2.6540    5.6800 c3        1 MOL     -0.525657
    110 H46        -3.8520   -3.7650    1.4730 hn        1 MOL      0.219433
    111 H47        -2.5230   -3.5120    3.0880 h1        1 MOL      0.057205
    112 H48        -3.1790   -0.5710    3.0410 hc        1 MOL      0.043485
    113 H49        -2.5350   -0.6590    5.3670 hc        1 MOL      0.232857
    114 H50        -1.1190   -1.2350    4.4890 hc        1 MOL      0.232857
    115 H51        -5.2920   -1.4480    3.2310 hc        1 MOL      0.073314
    116 H52        -4.6670   -2.9440    4.0620 hc        1 MOL      0.073314
    117 H53        -4.8290   -1.4520    4.9470 hc        1 MOL      0.073314
    118 H54        -1.5540   -2.4310    6.5730 hc        1 MOL      0.153981
    119 H55        -3.1070   -2.8150    6.1780 hc        1 MOL      0.153981
    120 H56        -1.7830   -3.5620    5.2100 hc        1 MOL      0.153981
    121 N11        -0.1920   -3.0560    2.7160 n         1 MOL     -0.701394
    122 C40         1.2610   -2.8490    2.7290 c3        1 MOL      0.063447
    123 C41         1.9670   -2.9260    1.3400 c         1 MOL      0.532935
    124 O16         3.1470   -2.7920    1.3600 o         1 MOL     -0.537750
    125 C42         1.9830   -3.4520    3.8730 c3        1 MOL      0.265576
    126 O17         1.1480   -3.5470    4.9910 oh        1 MOL     -0.602276
    127 H57        -0.4940   -3.6140    3.5090 hn        1 MOL      0.354374
    128 H58         1.4220   -1.8060    2.9750 h1        1 MOL      0.142672
    129 H59         2.8630   -2.8490    4.0620 h1        1 MOL      0.027717
    130 H60         2.4060   -4.3990    3.5570 h1        1 MOL      0.027717
    131 H61         0.6810   -4.3780    4.9240 ho        1 MOL      0.380312
    132 N12         1.2550   -3.0920    0.2020 n         1 MOL     -0.438896
    133 C43         1.9150   -3.0600   -1.1500 c3        1 MOL      0.017551
    134 C44         1.6610   -1.7080   -1.8480 c         1 MOL      0.752058
    135 O18         0.5860   -1.1760   -1.7130 o         1 MOL     -0.581966
    136 C45         1.3410   -4.2770   -1.9930 c3        1 MOL     -0.311499
    137 H62         0.2560   -3.2460    0.2450 hn        1 MOL      0.270143
    138 H63         2.9670   -3.2800   -0.9960 h1        1 MOL      0.144427
    139 H64         1.9370   -4.3530   -2.8980 hc        1 MOL      0.088878
    140 H65         1.5790   -5.1830   -1.4420 hc        1 MOL      0.088878
    141 H66         0.3030   -4.2940   -2.3030 hc        1 MOL      0.088878
    142 N13         2.6970   -1.1350   -2.5660 n         1 MOL     -0.714286
    143 C46         4.1490   -1.2650   -2.4000 c3        1 MOL      0.123132
    144 C47         4.6340   -2.5890   -2.9660 c         1 MOL      0.742380
    145 O19         4.2440   -2.9210   -4.0470 o         1 MOL     -0.594978
    146 C48         4.8430   -0.1540   -3.2100 c3        1 MOL     -0.314506
    147 H67         2.5660   -0.1850   -2.8960 hn        1 MOL      0.373635
    148 H68         4.3570   -1.1870   -1.3400 h1        1 MOL      0.063773
    149 H69         4.6100   -0.1560   -4.2800 hc        1 MOL      0.106235
    150 H70         4.6130    0.8190   -2.7880 hc        1 MOL      0.106235
    151 H71         5.9280   -0.2480   -3.2600 hc        1 MOL      0.106235
    152 N14         5.5110   -3.3550   -2.3430 n         1 MOL     -0.698662
    153 C49         6.2350   -2.9210   -1.1360 c3        1 MOL      0.051315
    154 C50         6.4210   -4.1890   -0.2130 c         1 MOL      0.504104
    155 O20         6.2040   -4.1040    1.0030 o         1 MOL     -0.497944
    156 C51         7.5200   -2.1950   -1.4760 c3        1 MOL     -0.018448
    157 C52         8.0380   -1.5020   -0.1740 c3        1 MOL     -0.231655
    158 C53         9.1200   -0.5040   -0.4630 c         1 MOL      0.793749
    159 O21        10.0120   -0.9150   -1.2340 o         1 MOL     -0.722300
    160 O22         9.1690    0.5930    0.1460 o         1 MOL     -0.722300
    161 H72         5.8450   -4.0750   -2.9730 hn        1 MOL      0.326466
    162 H73         5.7080   -2.2460   -0.4680 h1        1 MOL      0.085487
    163 H74         7.3180   -1.4220   -2.2110 hc        1 MOL     -0.000420
    164 H75         8.2190   -2.9620   -1.8360 hc        1 MOL     -0.000420
    165 H76         8.3210   -2.2370    0.5900 hc        1 MOL      0.080171
    166 H77         7.1990   -0.9030    0.1790 hc        1 MOL      0.080171
    167 N15         7.0000   -5.2320   -0.8370 n         1 MOL     -0.339668
    168 C54         7.1210   -6.6010   -0.3510 c3        1 MOL     -0.033444
    169 H78         6.9210   -6.6240    0.7210 h1        1 MOL      0.056001
    170 H79         6.4020   -7.2360   -0.8680 h1        1 MOL      0.056001
    171 H80         8.1310   -6.9650   -0.5400 h1        1 MOL      0.056001
    172 H81         7.3320   -5.1530   -1.7820 hn        1 MOL      0.295202
    173 Ca1        -1.7490    0.2930   -0.9470 Ca        1 MOL      1.819668
    174 O23        -1.7950   -2.7010   -1.4080 oh        1 MOL     -0.894661
    175 H82        -1.8950   -2.5870   -2.3520 ho        1 MOL      0.439327
    176 H83        -1.3240   -3.5280   -1.3190 ho        1 MOL      0.439327
    177 O24        -2.7150   -0.6380   -3.2200 oh        1 MOL     -0.894661
    178 H84        -3.6270   -0.8350   -3.4390 ho        1 MOL      0.439327
    179 H85        -2.2280   -0.7980   -4.0250 ho        1 MOL      0.439327
@<TRIPOS>BOND
     1    1    2 1   
     2    1    4 1   
     3    1    5 1   
     4    1    6 1   
     5    2    3 2   
     6    2    7 1   
     7    7    8 1   
     8    7   15 1   
     9    8    9 1   
    10    8   11 1   
    11    8   16 1   
    12    9   10 2   
    13    9   19 1   
    14   11   12 1   
    15   11   17 1   
    16   11   18 1   
    17   12   13 1   
    18   12   14 1   
    19   19   20 1   
    20   19   28 1   
    21   20   21 1   
    22   20   23 1   
    23   20   29 1   
    24   21   22 2   
    25   21   41 1   
    26   23   24 1   
    27   23   30 1   
    28   23   31 1   
    29   24   25 1   
    30   24   32 1   
    31   24   33 1   
    32   25   26 1   
    33   25   34 1   
    34   25   35 1   
    35   26   27 1   
    36   26   36 1   
    37   26   37 1   
    38   27   38 1   
    39   27   39 1   
    40   27   40 1   
    41   41   42 1   
    42   41   49 1   
    43   42   43 1   
    44   42   45 1   
    45   42   50 1   
    46   43   44 2   
    47   43   53 1   
    48   45   46 1   
    49   45   51 1   
    50   45   52 1   
    51   46   47 1   
    52   46   48 1   
    53   53   54 1   
    54   53   57 1   
    55   54   55 1   
    56   54   58 1   
    57   54   59 1   
    58   55   56 2   
    59   55   60 1   
    60   60   61 1   
    61   60   68 1   
    62   61   62 1   
    63   61   64 1   
    64   61   69 1   
    65   62   63 2   
    66   62   74 1   
    67   64   65 1   
    68   64   70 1   
    69   64   71 1   
    70   65   66 1   
    71   65   67 2   
    72   66   72 1   
    73   66   73 1   
    74   74   75 1   
    75   74   78 1   
    76   75   76 1   
    77   75   79 1   
    78   75   80 1   
    79   76   77 2   
    80   76   81 1   
    81   81   82 1   
    82   81   93 1   
    83   82   83 1   
    84   82   85 1   
    85   82   94 1   
    86   83   84 2   
    87   83  102 1   
    88   85   86 1   
    89   85   95 1   
    90   85   96 1   
    91   86   87 ar  
    92   86   88 ar  
    93   87   89 ar  
    94   87   97 1   
    95   88   90 ar  
    96   88   98 1   
    97   89   91 ar  
    98   89   99 1   
    99   90   91 ar  
   100   90  100 1   
   101   91   92 1   
   102   92  101 1   
   103  102  103 1   
   104  102  110 1   
   105  103  104 1   
   106  103  106 1   
   107  103  111 1   
   108  104  105 2   
   109  104  121 1   
   110  106  107 1   
   111  106  108 1   
   112  106  112 1   
   113  107  109 1   
   114  107  113 1   
   115  107  114 1   
   116  108  115 1   
   117  108  116 1   
   118  108  117 1   
   119  109  118 1   
   120  109  119 1   
   121  109  120 1   
   122  121  122 1   
   123  121  127 1   
   124  122  123 1   
   125  122  125 1   
   126  122  128 1   
   127  123  124 2   
   128  123  132 1   
   129  125  126 1   
   130  125  129 1   
   131  125  130 1   
   132  126  131 1   
   133  132  133 1   
   134  132  137 1   
   135  133  134 1   
   136  133  136 1   
   137  133  138 1   
   138  134  135 2   
   139  134  142 1   
   140  136  139 1   
   141  136  140 1   
   142  136  141 1   
   143  142  143 1   
   144  142  147 1   
   145  143  144 1   
   146  143  146 1   
   147  143  148 1   
   148  144  145 2   
   149  144  152 1   
   150  146  149 1   
   151  146  150 1   
   152  146  151 1   
   153  152  153 1   
   154  152  161 1   
   155  153  154 1   
   156  153  156 1   
   157  153  162 1   
   158  154  155 2   
   159  154  167 1   
   160  156  157 1   
   161  156  163 1   
   162  156  164 1   
   163  157  158 1   
   164  157  165 1   
   165  157  166 1   
   166  158  159 1   
   167  158  160 1   
   168  167  168 1   
   169  167  172 1   
   170  168  169 1   
   171  168  170 1   
   172  168  171 1   
   173  174  175 1   
   174  174  176 1   
   175  177  178 1   
   176  177  179 1   
@<TRIPOS>SUBSTRUCTURE
     1 MOL         1 TEMP              0 ****  ****    0 ROOT
