@<TRIPOS>MOLECULE
MOL
  195   189     1     0     0
SMALL
resp


@<TRIPOS>ATOM
      1 C1         -2.7710    7.6500   -1.8530 c3        1 MOL     -0.327010
      2 C2         -2.9050    6.2680   -1.2160 c         1 MOL      0.539391
      3 O1         -2.4490    6.0050   -0.0910 o         1 MOL     -0.502994
      4 H1         -2.7670    8.4100   -1.0730 hc        1 MOL      0.092769
      5 H2         -1.8400    7.7020   -2.4160 hc        1 MOL      0.092769
      6 H3         -3.6130    7.8240   -2.5250 hc        1 MOL      0.092769
      7 N1         -3.5700    5.3340   -1.9110 n         1 MOL     -0.413494
      8 C3         -3.5980    3.9420   -1.4760 c3        1 MOL     -0.054541
      9 C4         -2.2440    3.1410   -1.3420 c         1 MOL      0.562116
     10 O2         -2.2170    2.2370   -0.4430 o         1 MOL     -0.548280
     11 C5         -4.4990    3.1130   -2.4710 c3        1 MOL     -0.187002
     12 C6         -4.3020    3.5370   -3.9020 c         1 MOL      0.576792
     13 O3         -4.7900    4.5470   -4.4510 o         1 MOL     -0.644419
     14 O4         -3.5880    2.7240   -4.6010 o         1 MOL     -0.644419
     15 H4         -4.0820    5.5590   -2.7490 hn        1 MOL      0.296743
     16 H5         -4.0310    3.8190   -0.4860 h1        1 MOL      0.128304
     17 H6         -5.5580    3.1470   -2.2150 hc        1 MOL      0.057182
     18 H7         -4.3020    2.0390   -2.3490 hc        1 MOL      0.057182
     19 N2         -1.2490    3.4610   -2.1430 n         1 MOL     -0.536643
     20 C7          0.0420    2.7270   -2.0710 c3        1 MOL      0.340781
     21 C8          0.9790    3.3420   -1.0210 c         1 MOL      0.527434
     22 O5          0.9950    4.5240   -0.7940 o         1 MOL     -0.552958
     23 C9          0.7530    2.6090   -3.4580 c3        1 MOL     -0.285833
     24 C10        -0.2670    2.1290   -4.5160 c3        1 MOL      0.014493
     25 C11        -0.7560    0.6640   -4.3900 c3        1 MOL      0.167401
     26 C12        -1.1730    0.2380   -5.8340 c3        1 MOL     -0.225391
     27 N3         -2.5340    0.7320   -6.1030 n4        1 MOL     -0.154184
     28 H8         -1.3760    4.1510   -2.8820 hn        1 MOL      0.339746
     29 H9         -0.0780    1.6830   -1.7740 h1        1 MOL      0.060903
     30 H10         1.6500    1.9900   -3.4420 hc        1 MOL      0.085508
     31 H11         1.0690    3.6420   -3.6000 hc        1 MOL      0.085508
     32 H12         0.1970    2.2000   -5.5030 hc        1 MOL      0.009748
     33 H13        -1.0160    2.9100   -4.6600 hc        1 MOL      0.009748
     34 H14        -1.6560    0.6350   -3.7730 hc        1 MOL      0.023639
     35 H15         0.0480    0.0200   -4.0360 hc        1 MOL      0.023639
     36 H16        -1.1170   -0.8530   -5.7730 hx        1 MOL      0.123989
     37 H17        -0.4640    0.6350   -6.5670 hx        1 MOL      0.123989
     38 H18        -3.2710    0.2200   -5.6340 hn        1 MOL      0.249915
     39 H19        -2.6990    1.7090   -5.9120 hn        1 MOL      0.249915
     40 H20        -2.7970    0.5940   -7.0630 hn        1 MOL      0.249915
     41 N4          1.7480    2.5900   -0.2250 n         1 MOL     -0.542127
     42 C13         1.9770    1.1140   -0.0940 c3        1 MOL      0.106994
     43 C14         2.5350    0.3470   -1.3150 c         1 MOL      0.174776
     44 O6          1.8430   -0.4890   -1.9820 o         1 MOL     -0.532468
     45 C15         0.7920    0.4050    0.5600 c3        1 MOL     -0.125580
     46 C16         0.3120    1.0060    1.8670 c         1 MOL      0.723793
     47 O7         -0.6920    0.5780    2.4260 o         1 MOL     -0.743273
     48 O8          1.0260    1.9030    2.4200 o         1 MOL     -0.743273
     49 H21         2.1190    3.1450    0.5440 hn        1 MOL      0.334797
     50 H22         2.7630    1.1560    0.6710 h1        1 MOL      0.088392
     51 H23         1.1610   -0.5940    0.7920 hc        1 MOL      0.049754
     52 H24         0.0130    0.3490   -0.1980 hc        1 MOL      0.049754
     53 N5          3.7540    0.5550   -1.8490 n         1 MOL     -0.171120
     54 C17         4.8580    1.2990   -1.1690 c3        1 MOL      0.049539
     55 C18         5.8660    1.9380   -2.1700 c         1 MOL      0.452827
     56 O9          5.6770    1.8370   -3.4230 o         1 MOL     -0.554705
     57 H25         3.9950    0.0930   -2.7180 hn        1 MOL      0.238065
     58 H26         5.4010    0.6620   -0.4770 h1        1 MOL      0.033300
     59 H27         4.4410    2.1290   -0.5960 h1        1 MOL      0.033300
     60 N6          6.9160    2.5950   -1.7140 n         1 MOL     -0.296915
     61 C19         7.3470    2.7210   -0.3490 c3        1 MOL     -0.153894
     62 C20         8.0800    1.4280    0.0890 c         1 MOL      0.550172
     63 O10         8.6860    0.8780   -0.7820 o         1 MOL     -0.449217
     64 C21         8.2550    4.0280   -0.0750 c3        1 MOL     -0.104257
     65 C22         9.5270    4.2400   -0.9980 c         1 MOL      0.681320
     66 O11        10.5360    3.5210   -0.8030 o         1 MOL     -0.618740
     67 O12         9.5300    5.2390   -1.8110 o         1 MOL     -0.618740
     68 H28         7.3540    3.1490   -2.4320 hn        1 MOL      0.293027
     69 H29         6.4600    2.6990    0.2850 h1        1 MOL      0.038579
     70 H30         8.5900    3.9920    0.9600 hc        1 MOL      0.024418
     71 H31         7.7210    4.9700   -0.0230 hc        1 MOL      0.024418
     72 N7          8.0110    0.9280    1.3330 n         1 MOL     -0.260813
     73 C23         8.7470   -0.1340    1.9230 c3        1 MOL     -0.379917
     74 C24         8.1980   -1.5490    1.8610 c         1 MOL      0.618221
     75 O13         8.9250   -2.4900    1.6050 o         1 MOL     -0.536690
     76 H32         7.4190    1.4260    1.9880 hn        1 MOL      0.243228
     77 H33         8.7890    0.2090    2.9530 h1        1 MOL      0.158767
     78 H34         9.7250   -0.2320    1.4470 h1        1 MOL      0.158767
     79 N8          6.8810   -1.5840    1.8530 n         1 MOL     -0.389194
     80 C25         6.0550   -2.8160    1.5550 c3        1 MOL     -0.254346
     81 C26         4.9640   -2.5540    0.6040 c         1 MOL      0.829022
     82 O14         4.2450   -1.5720    0.7480 o         1 MOL     -0.650837
     83 C27         5.5580   -3.4450    2.8570 c3        1 MOL      0.318767
     84 C28         6.6530   -4.0200    3.7250 c3        1 MOL     -0.402990
     85 O15         4.8250   -4.5610    2.5220 oh        1 MOL     -0.606284
     86 H35         6.4110   -0.6930    1.9820 hn        1 MOL      0.239088
     87 H36         6.6870   -3.5940    1.1320 h1        1 MOL      0.175195
     88 H37         4.8980   -2.8160    3.4640 h1        1 MOL     -0.001835
     89 H38         4.1400   -4.7750    3.1500 ho        1 MOL      0.399043
     90 H39         7.3200   -3.3020    4.1910 hc        1 MOL      0.113960
     91 H40         6.2080   -4.5290    4.5790 hc        1 MOL      0.113960
     92 H41         7.2370   -4.7060    3.1170 hc        1 MOL      0.113960
     93 N9          4.8280   -3.3990   -0.4030 n         1 MOL     -0.442497
     94 C29         3.7710   -3.2820   -1.3440 c3        1 MOL     -0.377738
     95 C30         2.5300   -4.0240   -0.7330 c         1 MOL      0.484508
     96 O16         2.6060   -5.1650   -0.3220 o         1 MOL     -0.529611
     97 C31         4.1880   -3.7480   -2.7400 c3        1 MOL      0.144916
     98 C32         4.4970   -5.2760   -2.9530 c3        1 MOL      0.092639
     99 C33         5.3400   -2.8000   -3.2950 c3        1 MOL     -0.122199
    100 C34         4.8640   -5.6220   -4.4440 c3        1 MOL     -0.326892
    101 H42         5.3680   -4.2560   -0.3500 hn        1 MOL      0.303837
    102 H43         3.5490   -2.2200   -1.4650 h1        1 MOL      0.283602
    103 H44         3.3140   -3.4910   -3.3400 hc        1 MOL      0.011005
    104 H45         3.5500   -5.7380   -2.7050 hc        1 MOL      0.029157
    105 H46         5.2390   -5.7730   -2.3250 hc        1 MOL      0.029157
    106 H47         6.2440   -2.9170   -2.6930 hc        1 MOL      0.039007
    107 H48         5.4990   -2.8190   -4.3770 hc        1 MOL      0.039007
    108 H49         5.1380   -1.7410   -3.1150 hc        1 MOL      0.039007
    109 H50         4.0950   -5.2970   -5.1360 hc        1 MOL      0.076158
    110 H51         5.8130   -5.1300   -4.6760 hc        1 MOL      0.076158
    111 H52         4.9390   -6.7150   -4.4810 hc        1 MOL      0.076158
    112 N10         1.3430   -3.4340   -0.7730 n         1 MOL     -0.298664
    113 C35         0.1200   -3.8470   -0.1270 c3        1 MOL     -0.018461
    114 C36        -1.1240   -3.2000   -0.7780 c         1 MOL      0.530662
    115 O17        -1.0530   -2.0740   -1.1900 o         1 MOL     -0.508862
    116 C37         0.0920   -3.6320    1.4270 c3        1 MOL      0.442955
    117 C38         1.3220   -4.1020    2.1480 c3        1 MOL     -0.292824
    118 O18        -0.8900   -4.3390    2.1090 oh        1 MOL     -0.644893
    119 H53         1.2970   -2.4910   -1.1370 hn        1 MOL      0.236238
    120 H54         0.1030   -4.9110   -0.3970 h1        1 MOL      0.098744
    121 H55         0.0480   -2.5590    1.6280 h1        1 MOL     -0.023303
    122 H56        -1.4080   -3.6760    2.5840 ho        1 MOL      0.404268
    123 H57         1.4240   -5.1660    1.9520 hc        1 MOL      0.080132
    124 H58         2.1650   -3.5260    1.7420 hc        1 MOL      0.080132
    125 H59         1.3850   -3.9080    3.2220 hc        1 MOL      0.080132
    126 N11        -2.2100   -4.0490   -0.9890 n         1 MOL     -0.594455
    127 C39        -3.5380   -3.4750   -1.2810 c3        1 MOL      0.071965
    128 C40        -4.5840   -3.7360   -0.1080 c         1 MOL      0.535090
    129 O19        -4.5660   -4.8020    0.4950 o         1 MOL     -0.506283
    130 C41        -3.9730   -4.0750   -2.5910 c3        1 MOL      0.223996
    131 C42        -3.0780   -3.5410   -3.7520 c3        1 MOL     -0.336650
    132 O20        -5.2850   -3.6620   -2.9190 oh        1 MOL     -0.593018
    133 H60        -2.2300   -5.0000   -0.6530 hn        1 MOL      0.315881
    134 H61        -3.4830   -2.3900   -1.3770 h1        1 MOL      0.111577
    135 H62        -4.0440   -5.1620   -2.5410 h1        1 MOL      0.055368
    136 H63        -5.6170   -4.1970   -3.6380 ho        1 MOL      0.386097
    137 H64        -3.5990   -3.7080   -4.6960 hc        1 MOL      0.091473
    138 H65        -3.1300   -2.4600   -3.6440 hc        1 MOL      0.091473
    139 H66        -2.0810   -3.9760   -3.8130 hc        1 MOL      0.091473
    140 N12        -5.3630   -2.7040    0.2640 n         1 MOL     -0.450210
    141 C43        -6.5300   -2.8570    1.1640 c3        1 MOL     -0.015187
    142 C44        -6.7550   -1.7600    2.1810 c         1 MOL      0.515582
    143 O21        -7.8400   -1.5540    2.7150 o         1 MOL     -0.535523
    144 C45        -7.7630   -3.2530    0.3810 c3        1 MOL     -0.194939
    145 C46        -8.2890   -2.3240   -0.6950 c3        1 MOL     -0.040498
    146 C47        -8.7710   -3.0670   -1.8790 c3        1 MOL     -0.144180
    147 C48        -9.3430   -2.0280   -2.8810 c3        1 MOL      0.032149
    148 N13        -9.7400   -2.5850   -4.1360 n4        1 MOL     -0.047267
    149 H67        -5.1370   -1.7810   -0.0720 hn        1 MOL      0.279420
    150 H68        -6.4410   -3.7110    1.8400 h1        1 MOL      0.120348
    151 H69        -8.6420   -3.4330    1.0080 hc        1 MOL      0.109136
    152 H70        -7.5620   -4.2310   -0.0710 hc        1 MOL      0.109136
    153 H71        -7.5430   -1.5700   -0.9490 hc        1 MOL      0.066482
    154 H72        -9.1680   -1.7810   -0.3420 hc        1 MOL      0.066482
    155 H73        -9.6130   -3.7120   -1.6550 hc        1 MOL      0.044918
    156 H74        -7.8950   -3.5900   -2.2630 hc        1 MOL      0.044918
    157 H75        -8.4990   -1.3660   -3.0720 hx        1 MOL      0.069722
    158 H76       -10.1690   -1.4900   -2.4120 hx        1 MOL      0.069722
    159 H77        -9.8230   -1.9450   -4.9080 hn        1 MOL      0.189331
    160 H78        -9.1100   -3.3140   -4.4640 hn        1 MOL      0.189331
    161 H79       -10.5830   -3.1160   -4.0060 hn        1 MOL      0.189331
    162 N14        -5.7590   -0.8650    2.4010 n         1 MOL     -0.392409
    163 C49        -6.0060    0.4590    3.0500 c3        1 MOL     -0.105773
    164 C50        -6.4010    1.5330    2.0090 c         1 MOL      0.539984
    165 O22        -5.7620    1.7820    0.9800 o         1 MOL     -0.534088
    166 C51        -4.9000    1.0110    3.7490 c3        1 MOL      0.087204
    167 C52        -4.4800    0.0550    4.7810 c3        1 MOL     -0.120920
    168 C53        -3.6210    0.7920    5.8290 c         1 MOL      0.705082
    169 O23        -2.3460    0.7400    5.7520 o         1 MOL     -0.729945
    170 O24        -4.1500    1.3670    6.7680 o         1 MOL     -0.729945
    171 H80        -4.9240   -0.9620    1.8330 hn        1 MOL      0.299350
    172 H81        -6.8230    0.3200    3.7490 h1        1 MOL      0.081002
    173 H82        -5.1870    1.9550    4.1980 hc        1 MOL      0.034975
    174 H83        -4.0920    1.2950    3.0750 hc        1 MOL      0.034975
    175 H84        -3.9760   -0.8170    4.3610 hc        1 MOL      0.033557
    176 H85        -5.3210   -0.3550    5.3370 hc        1 MOL      0.033557
    177 N15        -7.3970    2.2890    2.3900 n         1 MOL     -0.391608
    178 C54        -8.0050    3.4120    1.6210 c3        1 MOL     -0.042325
    179 H86        -7.9130    4.3350    2.1920 h1        1 MOL      0.068987
    180 H87        -7.4870    3.5220    0.6680 h1        1 MOL      0.068987
    181 H88        -9.0590    3.2000    1.4390 h1        1 MOL      0.068987
    182 H89        -7.5700    2.2610    3.3830 hn        1 MOL      0.281889
    183 Ca1        -0.3580    1.9280    4.7570 Ca        1 MOL      1.696315
    184 O25        -1.6090    3.3630    2.7860 oh        1 MOL     -0.855534
    185 H90        -1.4360    2.7070    2.1050 ho        1 MOL      0.416670
    186 H91        -1.1860    4.1590    2.4570 ho        1 MOL      0.416670
    187 O26        -2.3250    3.5910    6.1050 oh        1 MOL     -0.855534
    188 H92        -2.9420    2.9340    6.4090 ho        1 MOL      0.416670
    189 H93        -2.4130    4.3120    6.7230 ho        1 MOL      0.416670
    190 O27         0.8920   -0.4730    4.9990 oh        1 MOL     -0.855534
    191 H94         1.5760   -0.4680    4.3210 ho        1 MOL      0.416670
    192 H95         1.3340   -0.8220    5.7700 ho        1 MOL      0.416670
    193 O28         2.6350    1.7690    5.2030 oh        1 MOL     -0.855534
    194 H96         2.7420    0.9660    5.7190 ho        1 MOL      0.416670
    195 H97         3.5290    2.0810    5.0700 ho        1 MOL      0.416670
@<TRIPOS>BOND
     1    1    2 1   
     2    1    4 1   
     3    1    5 1   
     4    1    6 1   
     5    2    3 2   
     6    2    7 1   
     7    7    8 1   
     8    7   15 1   
     9    8    9 1   
    10    8   11 1   
    11    8   16 1   
    12    9   10 2   
    13    9   19 1   
    14   11   12 1   
    15   11   17 1   
    16   11   18 1   
    17   12   13 1   
    18   12   14 1   
    19   19   20 1   
    20   19   28 1   
    21   20   21 1   
    22   20   23 1   
    23   20   29 1   
    24   21   22 2   
    25   21   41 1   
    26   23   24 1   
    27   23   30 1   
    28   23   31 1   
    29   24   25 1   
    30   24   32 1   
    31   24   33 1   
    32   25   26 1   
    33   25   34 1   
    34   25   35 1   
    35   26   27 1   
    36   26   36 1   
    37   26   37 1   
    38   27   38 1   
    39   27   39 1   
    40   27   40 1   
    41   41   42 1   
    42   41   49 1   
    43   42   43 1   
    44   42   45 1   
    45   42   50 1   
    46   43   44 2   
    47   43   53 1   
    48   45   46 1   
    49   45   51 1   
    50   45   52 1   
    51   46   47 1   
    52   46   48 1   
    53   53   54 1   
    54   53   57 1   
    55   54   55 1   
    56   54   58 1   
    57   54   59 1   
    58   55   56 2   
    59   55   60 1   
    60   60   61 1   
    61   60   68 1   
    62   61   62 1   
    63   61   64 1   
    64   61   69 1   
    65   62   63 2   
    66   62   72 1   
    67   64   65 1   
    68   64   70 1   
    69   64   71 1   
    70   65   66 1   
    71   65   67 1   
    72   72   73 1   
    73   72   76 1   
    74   73   74 1   
    75   73   77 1   
    76   73   78 1   
    77   74   75 2   
    78   74   79 1   
    79   79   80 1   
    80   79   86 1   
    81   80   81 1   
    82   80   83 1   
    83   80   87 1   
    84   81   82 2   
    85   81   93 1   
    86   83   84 1   
    87   83   85 1   
    88   83   88 1   
    89   84   90 1   
    90   84   91 1   
    91   84   92 1   
    92   85   89 1   
    93   93   94 1   
    94   93  101 1   
    95   94   95 1   
    96   94   97 1   
    97   94  102 1   
    98   95   96 2   
    99   95  112 1   
   100   97   98 1   
   101   97   99 1   
   102   97  103 1   
   103   98  100 1   
   104   98  104 1   
   105   98  105 1   
   106   99  106 1   
   107   99  107 1   
   108   99  108 1   
   109  100  109 1   
   110  100  110 1   
   111  100  111 1   
   112  112  113 1   
   113  112  119 1   
   114  113  114 1   
   115  113  116 1   
   116  113  120 1   
   117  114  115 2   
   118  114  126 1   
   119  116  117 1   
   120  116  118 1   
   121  116  121 1   
   122  117  123 1   
   123  117  124 1   
   124  117  125 1   
   125  118  122 1   
   126  126  127 1   
   127  126  133 1   
   128  127  128 1   
   129  127  130 1   
   130  127  134 1   
   131  128  129 2   
   132  128  140 1   
   133  130  131 1   
   134  130  132 1   
   135  130  135 1   
   136  131  137 1   
   137  131  138 1   
   138  131  139 1   
   139  132  136 1   
   140  140  141 1   
   141  140  149 1   
   142  141  142 1   
   143  141  144 1   
   144  141  150 1   
   145  142  143 2   
   146  142  162 1   
   147  144  145 1   
   148  144  151 1   
   149  144  152 1   
   150  145  146 1   
   151  145  153 1   
   152  145  154 1   
   153  146  147 1   
   154  146  155 1   
   155  146  156 1   
   156  147  148 1   
   157  147  157 1   
   158  147  158 1   
   159  148  159 1   
   160  148  160 1   
   161  148  161 1   
   162  162  163 1   
   163  162  171 1   
   164  163  164 1   
   165  163  166 1   
   166  163  172 1   
   167  164  165 2   
   168  164  177 1   
   169  166  167 1   
   170  166  173 1   
   171  166  174 1   
   172  167  168 1   
   173  167  175 1   
   174  167  176 1   
   175  168  169 1   
   176  168  170 1   
   177  177  178 1   
   178  177  182 1   
   179  178  179 1   
   180  178  180 1   
   181  178  181 1   
   182  184  185 1   
   183  184  186 1   
   184  187  188 1   
   185  187  189 1   
   186  190  191 1   
   187  190  192 1   
   188  193  194 1   
   189  193  195 1   
@<TRIPOS>SUBSTRUCTURE
     1 MOL         1 TEMP              0 ****  ****    0 ROOT
