@<TRIPOS>MOLECULE
MOL
  189   185     1     0     0
SMALL
resp


@<TRIPOS>ATOM
      1 C1         12.2960    3.8860   -3.8990 c3        1 MOL     -0.375408
      2 C2         11.8640    2.7770   -2.8640 c         1 MOL      0.640819
      3 O1         11.9400    1.5880   -3.1550 o         1 MOL     -0.586545
      4 H1         11.5660    4.6960   -3.8890 hc        1 MOL      0.098033
      5 H2         13.2760    4.2770   -3.6260 hc        1 MOL      0.098033
      6 H3         12.3440    3.4530   -4.8980 hc        1 MOL      0.098033
      7 N1         11.3590    3.2330   -1.7360 n         1 MOL     -0.254483
      8 C3         11.1200    2.3650   -0.5490 c3        1 MOL     -0.367937
      9 C4          9.6390    1.8750   -0.5180 c         1 MOL      0.749704
     10 O2          8.6200    2.5470   -0.7580 o         1 MOL     -0.701783
     11 C5         11.4530    3.1920    0.7780 c3        1 MOL     -0.014708
     12 C6         10.8690    4.5790    0.8260 c         1 MOL      0.802656
     13 O3         11.0910    5.3060    1.8240 o         1 MOL     -0.751153
     14 O4          9.9890    4.9120    0.0050 o         1 MOL     -0.751153
     15 H4         11.0990    4.2060   -1.6370 hn        1 MOL      0.193723
     16 H5         11.7130    1.4470   -0.5640 h1        1 MOL      0.173179
     17 H6         12.5300    3.2340    0.8790 hc        1 MOL      0.038942
     18 H7         11.1080    2.7090    1.6930 hc        1 MOL      0.038942
     19 N2          9.4880    0.5470   -0.5030 n         1 MOL     -0.507048
     20 C7          8.2750   -0.1820   -0.7070 c3        1 MOL      0.183842
     21 C8          7.1260    0.1770    0.3360 c         1 MOL      0.575243
     22 O5          7.3220    0.4030    1.5080 o         1 MOL     -0.560116
     23 C9          8.7820   -1.6810   -0.7600 c3        1 MOL     -0.318541
     24 C10         7.7930   -2.5270   -1.5570 c3        1 MOL      0.104760
     25 C11         8.2850   -3.9160   -2.0160 c3        1 MOL      0.100040
     26 C12         7.1740   -4.7850   -2.6640 c3        1 MOL     -0.062318
     27 N3          7.6840   -6.1110   -3.1290 n4        1 MOL     -0.215789
     28 H8         10.3340    0.0330   -0.3040 hn        1 MOL      0.250002
     29 H9          7.9720    0.1400   -1.6990 h1        1 MOL      0.113672
     30 H10         8.6780   -2.1290    0.2270 hc        1 MOL      0.120954
     31 H11         9.7570   -1.7520   -1.2400 hc        1 MOL      0.120954
     32 H12         7.6070   -1.9380   -2.4520 hc        1 MOL     -0.017580
     33 H13         6.7950   -2.6690   -1.1240 hc        1 MOL     -0.017580
     34 H14         8.7900   -4.3360   -1.1360 hc        1 MOL     -0.006269
     35 H15         9.1200   -3.7790   -2.7060 hc        1 MOL     -0.006269
     36 H16         6.7000   -4.2800   -3.5020 hx        1 MOL      0.103132
     37 H17         6.4160   -4.9370   -1.8890 hx        1 MOL      0.103132
     38 H18         8.2790   -6.0160   -3.9360 hn        1 MOL      0.245023
     39 H19         8.2060   -6.7060   -2.5050 hn        1 MOL      0.245023
     40 H20         6.8900   -6.6470   -3.4510 hn        1 MOL      0.245023
     41 N4          5.9100    0.1740   -0.3010 n         1 MOL     -0.562966
     42 C13         4.6150    0.3020    0.3780 c3        1 MOL      0.453465
     43 C14         3.6950   -0.8530   -0.1700 c         1 MOL      0.486489
     44 O6          4.1210   -1.4440   -1.2110 o         1 MOL     -0.589697
     45 C15         3.9310    1.5990    0.0780 c3        1 MOL      0.055698
     46 C16         4.8820    2.8490    0.0750 c         1 MOL      0.597019
     47 O7          5.3920    3.1900   -1.0360 o         1 MOL     -0.753942
     48 O8          5.1380    3.4240    1.1630 o         1 MOL     -0.753942
     49 H21         5.8630   -0.0070   -1.2860 hn        1 MOL      0.244181
     50 H22         4.7670    0.1720    1.4560 h1        1 MOL     -0.009101
     51 H23         3.1640    1.7830    0.8300 hc        1 MOL     -0.003446
     52 H24         3.4350    1.5440   -0.9020 hc        1 MOL     -0.003446
     53 N5          2.6340   -1.2570    0.4700 n         1 MOL     -0.627567
     54 C17         2.2430   -1.0130    1.9070 c3        1 MOL     -0.079139
     55 C18         2.2170   -2.2980    2.7190 c         1 MOL      0.622550
     56 O9          2.7690   -3.3080    2.2280 o         1 MOL     -0.563667
     57 H25         2.1750   -2.0570    0.0540 hn        1 MOL      0.399455
     58 H26         1.1930   -0.7260    1.9440 h1        1 MOL      0.095526
     59 H27         2.7900   -0.2110    2.3970 h1        1 MOL      0.095526
     60 N6          1.4690   -2.3040    3.8000 n         1 MOL     -0.491291
     61 C19         1.3270   -3.4970    4.6020 c3        1 MOL      0.138875
     62 C20         0.1680   -4.3680    4.0610 c         1 MOL      0.562440
     63 O10        -0.9750   -3.9510    3.7270 o         1 MOL     -0.535105
     64 C21         0.9730   -3.1680    6.0200 c3        1 MOL     -0.386047
     65 C22         0.8980   -4.3220    7.0160 c         1 MOL      0.795810
     66 O11         1.2950   -5.4750    6.6700 o         1 MOL     -0.672482
     67 O12         0.4710   -4.1590    8.1570 o         1 MOL     -0.672482
     68 H28         1.0030   -1.5000    4.2040 hn        1 MOL      0.308180
     69 H29         2.2260   -4.0880    4.7290 h1        1 MOL      0.049180
     70 H30         0.0240   -2.6310    6.0760 hc        1 MOL      0.093219
     71 H31         1.8340   -2.5830    6.3410 hc        1 MOL      0.093219
     72 N7          0.4900   -5.6050    3.6660 n         1 MOL     -0.381861
     73 C23        -0.3910   -6.5020    2.9340 c3        1 MOL     -0.062505
     74 C24        -0.6220   -6.3120    1.4260 c         1 MOL      0.449607
     75 O13        -1.1590   -7.1740    0.7060 o         1 MOL     -0.576259
     76 H32         1.4140   -5.9950    3.7860 hn        1 MOL      0.260931
     77 H33        -1.3250   -6.4670    3.4970 h1        1 MOL      0.098934
     78 H34        -0.0400   -7.5240    3.0350 h1        1 MOL      0.098934
     79 N8         -0.0830   -5.1780    0.9610 n         1 MOL     -0.091371
     80 C25        -0.1560   -4.6600   -0.5010 c3        1 MOL     -0.065246
     81 C26        -0.4700   -3.1940   -0.5340 c         1 MOL      0.352253
     82 O14        -0.0290   -2.3680    0.3100 o         1 MOL     -0.419076
     83 C27         1.1910   -4.8420   -1.2830 c3        1 MOL      0.394420
     84 C28         1.6560   -6.2690   -1.2810 c3        1 MOL     -0.417386
     85 O15         0.9060   -4.4990   -2.6110 oh        1 MOL     -0.636509
     86 H35         0.3320   -4.5990    1.6840 hn        1 MOL      0.034826
     87 H36        -0.9170   -5.1750   -1.0830 h1        1 MOL      0.100689
     88 H37         2.0340   -4.2340   -0.9690 h1        1 MOL     -0.008034
     89 H38         1.6800   -4.0340   -2.9140 ho        1 MOL      0.395874
     90 H39         2.3160   -6.3900   -2.1450 hc        1 MOL      0.106627
     91 H40         2.0600   -6.5910   -0.3260 hc        1 MOL      0.106627
     92 H41         0.8450   -6.9710   -1.4720 hc        1 MOL      0.106627
     93 N9         -1.1630   -2.8300   -1.6250 n         1 MOL     -0.132921
     94 C29        -1.6950   -1.4940   -1.9190 c3        1 MOL     -0.426137
     95 C30        -3.2400   -1.3150   -1.6000 c         1 MOL      0.823762
     96 O16        -3.7390   -0.3070   -1.0390 o         1 MOL     -0.573831
     97 C31        -1.4370   -1.0670   -3.3670 c3        1 MOL      0.034111
     98 C32         0.0880   -1.1870   -3.8810 c3        1 MOL      0.071333
     99 C33        -1.8700    0.4100   -3.5750 c3        1 MOL     -0.337161
    100 C34         1.2010   -0.3410   -3.1660 c3        1 MOL     -0.227158
    101 H42        -1.4410   -3.6110   -2.2040 hn        1 MOL      0.248180
    102 H43        -1.2460   -0.6980   -1.3260 h1        1 MOL      0.173425
    103 H44        -1.9480   -1.7670   -4.0270 hc        1 MOL      0.035036
    104 H45         0.1190   -0.9100   -4.9410 hc        1 MOL     -0.008070
    105 H46         0.3570   -2.2240   -4.0440 hc        1 MOL     -0.008070
    106 H47        -1.6240    0.8220   -4.5520 hc        1 MOL      0.111255
    107 H48        -2.9440    0.5300   -3.5690 hc        1 MOL      0.111255
    108 H49        -1.4890    1.1050   -2.8310 hc        1 MOL      0.111255
    109 H50         2.1500   -0.3420   -3.6880 hc        1 MOL      0.066008
    110 H51         0.8330    0.6710   -2.9370 hc        1 MOL      0.066008
    111 H52         1.5540   -0.9500   -2.3320 hc        1 MOL      0.066008
    112 N10        -4.0270   -2.3660   -1.8570 n         1 MOL     -0.619697
    113 C35        -5.4320   -2.4710   -1.5100 c3        1 MOL      0.056182
    114 C36        -6.3650   -1.9280   -2.6170 c         1 MOL      0.457571
    115 O17        -6.0560   -1.7620   -3.7790 o         1 MOL     -0.485537
    116 C37        -5.7200   -3.9410   -1.0870 c3        1 MOL      0.248571
    117 C38        -4.6970   -4.4830   -0.1550 c3        1 MOL     -0.267546
    118 O18        -6.9320   -3.9620   -0.3500 oh        1 MOL     -0.664207
    119 H53        -3.6510   -3.1770   -2.3190 hn        1 MOL      0.318135
    120 H54        -5.4700   -1.7380   -0.7040 h1        1 MOL      0.128768
    121 H55        -5.7370   -4.5910   -1.9610 h1        1 MOL      0.032165
    122 H56        -7.0760   -4.8610   -0.0620 ho        1 MOL      0.428159
    123 H57        -3.7440   -4.7500   -0.6070 hc        1 MOL      0.084327
    124 H58        -4.4000   -3.6050    0.4180 hc        1 MOL      0.084327
    125 H59        -5.1060   -5.2820    0.4700 hc        1 MOL      0.084327
    126 N11        -7.6810   -1.7080   -2.2820 n         1 MOL     -0.327201
    127 C39        -8.7550   -1.1570   -3.1280 c3        1 MOL     -0.110308
    128 C40        -9.0450    0.3260   -2.8460 c         1 MOL      0.640846
    129 O19        -9.5990    0.9440   -3.7660 o         1 MOL     -0.572100
    130 C41        -9.9720   -2.0060   -2.8960 c3        1 MOL      0.452958
    131 C42       -10.6120   -1.8440   -1.5360 c3        1 MOL     -0.340528
    132 O20        -9.7050   -3.3610   -3.2130 oh        1 MOL     -0.636842
    133 H60        -7.8310   -1.6910   -1.2810 hn        1 MOL      0.267446
    134 H61        -8.3520   -1.1980   -4.1380 h1        1 MOL      0.120144
    135 H62       -10.6680   -1.6930   -3.6630 h1        1 MOL     -0.042526
    136 H63       -10.2610   -3.5460   -3.9700 ho        1 MOL      0.399271
    137 H64       -10.9890   -0.8200   -1.4920 hc        1 MOL      0.084987
    138 H65       -11.4050   -2.5920   -1.4780 hc        1 MOL      0.084987
    139 H66        -9.9050   -2.0130   -0.7110 hc        1 MOL      0.084987
    140 N12        -8.7630    0.9350   -1.6540 n         1 MOL     -0.495567
    141 C43        -8.9400    2.3440   -1.3010 c3        1 MOL      0.180104
    142 C44        -8.0410    2.8890   -0.1970 c         1 MOL      0.492824
    143 O21        -7.2820    2.1500    0.4290 o         1 MOL     -0.459658
    144 C45       -10.4320    2.5440   -0.7910 c3        1 MOL     -0.288742
    145 C46       -10.7210    1.6310    0.4210 c3        1 MOL     -0.035366
    146 C47       -11.9480    2.2240    1.0820 c3        1 MOL      0.106088
    147 C48       -12.2350    1.3000    2.3160 c3        1 MOL     -0.000472
    148 N13       -13.5280    1.7340    2.9460 n4        1 MOL     -0.140217
    149 H67        -8.4050    0.3660   -0.9110 hn        1 MOL      0.175889
    150 H68        -8.9230    3.0330   -2.1400 h1        1 MOL      0.066047
    151 H69       -11.1060    2.3300   -1.6180 hc        1 MOL      0.092994
    152 H70       -10.5990    3.5990   -0.5890 hc        1 MOL      0.092994
    153 H71        -9.9390    1.7010    1.1700 hc        1 MOL      0.052481
    154 H72       -10.9090    0.5990    0.1140 hc        1 MOL      0.052481
    155 H73       -12.7740    2.0640    0.3930 hc        1 MOL     -0.006076
    156 H74       -11.7860    3.2810    1.2930 hc        1 MOL     -0.006076
    157 H75       -11.4190    1.4670    3.0240 hx        1 MOL      0.073144
    158 H76       -12.2250    0.2470    2.0280 hx        1 MOL      0.073144
    159 H77       -14.3050    1.3180    2.4380 hn        1 MOL      0.213591
    160 H78       -13.6950    1.3350    3.8500 hn        1 MOL      0.213591
    161 H79       -13.6050    2.7370    2.8740 hn        1 MOL      0.213591
    162 N14        -8.0340    4.2590   -0.0390 n         1 MOL     -0.385572
    163 C49        -7.2120    4.9110    0.8760 c3        1 MOL      0.152218
    164 C50        -5.6410    4.5310    0.9210 c         1 MOL      0.392573
    165 O22        -5.1230    4.1690    1.9850 o         1 MOL     -0.513410
    166 C51        -7.3840    6.4390    0.7930 c3        1 MOL      0.036832
    167 C52        -7.2240    7.0330    2.2170 c3        1 MOL     -0.275155
    168 C53        -7.3970    8.5610    2.0960 c         1 MOL      0.724281
    169 O23        -8.5120    8.9930    1.6920 o         1 MOL     -0.657364
    170 O24        -6.4900    9.3630    2.4640 o         1 MOL     -0.657364
    171 H80        -8.5390    4.8590   -0.6760 hn        1 MOL      0.234389
    172 H81        -7.5690    4.6610    1.8810 h1        1 MOL      0.020378
    173 H82        -8.3830    6.7630    0.5110 hc        1 MOL     -0.002694
    174 H83        -6.7080    6.9710    0.1280 hc        1 MOL     -0.002694
    175 H84        -6.2590    6.8330    2.6780 hc        1 MOL      0.059640
    176 H85        -8.1430    6.6790    2.6790 hc        1 MOL      0.059640
    177 N15        -4.8910    4.3580   -0.2160 n         1 MOL     -0.283073
    178 C54        -5.2900    4.7410   -1.5780 c3        1 MOL      0.009756
    179 H86        -5.4910    5.8130   -1.6080 h1        1 MOL      0.025863
    180 H87        -4.4860    4.5020   -2.2740 h1        1 MOL      0.025863
    181 H88        -6.1910    4.1950   -1.8600 h1        1 MOL      0.025863
    182 H89        -3.9160    4.1330   -0.0590 hn        1 MOL      0.265114
    183 Ca1         7.2170    4.7200    0.0550 Ca        1 MOL      1.777493
    184 O25         8.4780    6.0950    2.0020 oh        1 MOL     -0.975355
    185 H90         9.3950    6.0110    1.7600 ho        1 MOL      0.473148
    186 H91         8.4890    6.5200    2.8530 ho        1 MOL      0.473148
    187 O26         8.0980    3.1720    2.1150 oh        1 MOL     -0.975355
    188 H92         7.6860    2.3070    2.1390 ho        1 MOL      0.473148
    189 H93         8.5230    3.2470    2.9700 ho        1 MOL      0.473148
@<TRIPOS>BOND
     1    1    2 1   
     2    1    4 1   
     3    1    5 1   
     4    1    6 1   
     5    2    3 2   
     6    2    7 1   
     7    7    8 1   
     8    7   15 1   
     9    8    9 1   
    10    8   11 1   
    11    8   16 1   
    12    9   10 2   
    13    9   19 1   
    14   11   12 1   
    15   11   17 1   
    16   11   18 1   
    17   12   13 1   
    18   12   14 1   
    19   19   20 1   
    20   19   28 1   
    21   20   21 1   
    22   20   23 1   
    23   20   29 1   
    24   21   22 2   
    25   21   41 1   
    26   23   24 1   
    27   23   30 1   
    28   23   31 1   
    29   24   25 1   
    30   24   32 1   
    31   24   33 1   
    32   25   26 1   
    33   25   34 1   
    34   25   35 1   
    35   26   27 1   
    36   26   36 1   
    37   26   37 1   
    38   27   38 1   
    39   27   39 1   
    40   27   40 1   
    41   41   42 1   
    42   41   49 1   
    43   42   43 1   
    44   42   45 1   
    45   42   50 1   
    46   43   44 2   
    47   43   53 1   
    48   45   46 1   
    49   45   51 1   
    50   45   52 1   
    51   46   47 1   
    52   46   48 1   
    53   53   54 1   
    54   53   57 1   
    55   54   55 1   
    56   54   58 1   
    57   54   59 1   
    58   55   56 2   
    59   55   60 1   
    60   60   61 1   
    61   60   68 1   
    62   61   62 1   
    63   61   64 1   
    64   61   69 1   
    65   62   63 2   
    66   62   72 1   
    67   64   65 1   
    68   64   70 1   
    69   64   71 1   
    70   65   66 1   
    71   65   67 1   
    72   72   73 1   
    73   72   76 1   
    74   73   74 1   
    75   73   77 1   
    76   73   78 1   
    77   74   75 2   
    78   74   79 1   
    79   79   80 1   
    80   79   86 1   
    81   80   81 1   
    82   80   83 1   
    83   80   87 1   
    84   81   82 2   
    85   81   93 1   
    86   83   84 1   
    87   83   85 1   
    88   83   88 1   
    89   84   90 1   
    90   84   91 1   
    91   84   92 1   
    92   85   89 1   
    93   93   94 1   
    94   93  101 1   
    95   94   95 1   
    96   94   97 1   
    97   94  102 1   
    98   95   96 2   
    99   95  112 1   
   100   97   98 1   
   101   97   99 1   
   102   97  103 1   
   103   98  100 1   
   104   98  104 1   
   105   98  105 1   
   106   99  106 1   
   107   99  107 1   
   108   99  108 1   
   109  100  109 1   
   110  100  110 1   
   111  100  111 1   
   112  112  113 1   
   113  112  119 1   
   114  113  114 1   
   115  113  116 1   
   116  113  120 1   
   117  114  115 2   
   118  114  126 1   
   119  116  117 1   
   120  116  118 1   
   121  116  121 1   
   122  117  123 1   
   123  117  124 1   
   124  117  125 1   
   125  118  122 1   
   126  126  127 1   
   127  126  133 1   
   128  127  128 1   
   129  127  130 1   
   130  127  134 1   
   131  128  129 2   
   132  128  140 1   
   133  130  131 1   
   134  130  132 1   
   135  130  135 1   
   136  131  137 1   
   137  131  138 1   
   138  131  139 1   
   139  132  136 1   
   140  140  141 1   
   141  140  149 1   
   142  141  142 1   
   143  141  144 1   
   144  141  150 1   
   145  142  143 2   
   146  142  162 1   
   147  144  145 1   
   148  144  151 1   
   149  144  152 1   
   150  145  146 1   
   151  145  153 1   
   152  145  154 1   
   153  146  147 1   
   154  146  155 1   
   155  146  156 1   
   156  147  148 1   
   157  147  157 1   
   158  147  158 1   
   159  148  159 1   
   160  148  160 1   
   161  148  161 1   
   162  162  163 1   
   163  162  171 1   
   164  163  164 1   
   165  163  166 1   
   166  163  172 1   
   167  164  165 2   
   168  164  177 1   
   169  166  167 1   
   170  166  173 1   
   171  166  174 1   
   172  167  168 1   
   173  167  175 1   
   174  167  176 1   
   175  168  169 1   
   176  168  170 1   
   177  177  178 1   
   178  177  182 1   
   179  178  179 1   
   180  178  180 1   
   181  178  181 1   
   182  184  185 1   
   183  184  186 1   
   184  187  188 1   
   185  187  189 1   
@<TRIPOS>SUBSTRUCTURE
     1 MOL         1 TEMP              0 ****  ****    0 ROOT
