@<TRIPOS>MOLECULE
MOL
  192   187     1     0     0
SMALL
resp


@<TRIPOS>ATOM
      1 C1        -10.3740   -0.2850   -1.5030 c3        1 MOL     -0.475178
      2 C2         -8.9630   -0.4140   -0.9780 c         1 MOL      0.714874
      3 O1         -7.9910   -0.4670   -1.7150 o         1 MOL     -0.662058
      4 H1        -10.7080   -1.2490   -1.8850 hc        1 MOL      0.122440
      5 H2        -11.0340    0.0350   -0.6970 hc        1 MOL      0.122440
      6 H3        -10.3970    0.4510   -2.3060 hc        1 MOL      0.122440
      7 N1         -8.8500   -0.4840    0.3480 n         1 MOL     -0.451505
      8 C3         -7.5970   -0.4900    1.0500 c3        1 MOL      0.186613
      9 C4         -6.9940   -1.8920    1.2180 c         1 MOL      0.444522
     10 O2         -6.9350   -2.4270    2.3500 o         1 MOL     -0.427077
     11 C5         -7.7560    0.3290    2.3310 c3        1 MOL     -0.150705
     12 C6         -8.9810   -0.1700    3.2040 c         1 MOL      0.599235
     13 O3        -10.1700   -0.0860    2.7480 o         1 MOL     -0.594177
     14 O4         -8.7180   -0.7230    4.3240 o         1 MOL     -0.594177
     15 H4         -9.7180   -0.3680    0.8730 hn        1 MOL      0.187224
     16 H5         -6.8570    0.0760    0.4900 h1        1 MOL      0.027498
     17 H6         -7.8390    1.3960    2.1140 hc        1 MOL      0.051420
     18 H7         -6.8750    0.1930    2.9610 hc        1 MOL      0.051420
     19 N2         -6.4650   -2.4060    0.1300 n         1 MOL     -0.460351
     20 C7         -5.8100   -3.7290    0.1930 c3        1 MOL      0.256238
     21 C8         -4.3270   -3.6430    0.6600 c         1 MOL      0.348689
     22 O5         -3.9630   -4.4830    1.5040 o         1 MOL     -0.525444
     23 C9         -5.8520   -4.4050   -1.1440 c3        1 MOL     -0.071560
     24 C10        -7.3130   -4.6750   -1.5950 c3        1 MOL      0.012292
     25 C11        -7.3550   -5.4340   -2.9280 c3        1 MOL     -0.024025
     26 C12        -8.8290   -5.4480   -3.3340 c3        1 MOL      0.016775
     27 N3         -9.1150   -5.9010   -4.7000 n4        1 MOL     -0.312069
     28 H8         -6.6330   -1.9330   -0.7490 hn        1 MOL      0.263331
     29 H9         -6.3610   -4.2890    0.9380 h1        1 MOL      0.027948
     30 H10        -5.2490   -5.2980   -0.9410 hc        1 MOL      0.021210
     31 H11        -5.2990   -3.8830   -1.9230 hc        1 MOL      0.021210
     32 H12        -7.8740   -3.7390   -1.6240 hc        1 MOL      0.016045
     33 H13        -7.8590   -5.2950   -0.8750 hc        1 MOL      0.016045
     34 H14        -6.9450   -6.4390   -2.7850 hc        1 MOL      0.031552
     35 H15        -6.7060   -4.9660   -3.6660 hc        1 MOL      0.031552
     36 H16        -9.2660   -4.4640   -3.1950 hx        1 MOL      0.085676
     37 H17        -9.2440   -6.2040   -2.6580 hx        1 MOL      0.085676
     38 H18        -8.4590   -5.3730   -5.2610 hn        1 MOL      0.276738
     39 H19        -8.9410   -6.8970   -4.7820 hn        1 MOL      0.276738
     40 H20       -10.0420   -5.7030   -5.0390 hn        1 MOL      0.276738
     41 N4         -3.5040   -2.6620    0.3130 n         1 MOL     -0.220299
     42 C13        -3.5200   -1.5430   -0.6680 c3        1 MOL      0.015074
     43 C14        -3.7920   -0.1310   -0.1150 c         1 MOL     -0.012988
     44 O6         -3.9900    0.1030    1.0920 o         1 MOL     -0.346001
     45 C15        -2.2490   -1.7040   -1.4880 c3        1 MOL     -0.429143
     46 C16        -0.9800   -1.8950   -0.6200 c         1 MOL      0.669484
     47 O7         -0.7850   -1.0800    0.3650 o         1 MOL     -0.629874
     48 O8         -0.2650   -2.9460   -0.7820 o         1 MOL     -0.629874
     49 H21        -2.6200   -2.6340    0.8020 hn        1 MOL      0.333027
     50 H22        -4.3090   -1.7850   -1.3860 h1        1 MOL      0.106607
     51 H23        -2.1040   -0.7520   -1.9880 hc        1 MOL      0.132124
     52 H24        -2.3910   -2.5370   -2.1820 hc        1 MOL      0.132124
     53 N5         -4.0160    0.7990   -1.0110 n         1 MOL     -0.068259
     54 C17        -4.2730    2.2190   -0.5780 c3        1 MOL     -0.248837
     55 C18        -3.1100    2.7710    0.2480 c         1 MOL      0.669452
     56 O9         -1.9740    2.2720    0.3240 o         1 MOL     -0.572616
     57 H25        -3.9630    0.6640   -2.0110 hn        1 MOL      0.242955
     58 H26        -5.1680    2.2460    0.0400 h1        1 MOL      0.106404
     59 H27        -4.3230    2.7920   -1.5110 h1        1 MOL      0.106404
     60 N6         -3.3470    3.9870    0.7480 n         1 MOL     -0.481727
     61 C19        -2.3790    4.8810    1.3820 c3        1 MOL      0.214492
     62 C20        -2.6280    6.3970    0.9220 c         1 MOL      0.402590
     63 O10        -3.7630    6.7890    0.7300 o         1 MOL     -0.517867
     64 C21        -2.4640    4.7190    2.9600 c3        1 MOL     -0.264733
     65 C22        -1.7910    3.4540    3.4570 c         1 MOL      0.661389
     66 O11        -0.7810    3.1150    2.7930 o         1 MOL     -0.666095
     67 O12        -2.2740    2.7260    4.3370 o         1 MOL     -0.666095
     68 H28        -4.2870    4.3380    0.7080 hn        1 MOL      0.287692
     69 H29        -1.3880    4.6420    0.9820 h1        1 MOL      0.043355
     70 H30        -3.5090    4.6800    3.2650 hc        1 MOL      0.080633
     71 H31        -1.9860    5.5600    3.4700 hc        1 MOL      0.080633
     72 N7         -1.6490    7.3040    0.8510 n         1 MOL     -0.388129
     73 C23        -0.1300    7.1990    1.2090 c3        1 MOL     -0.028253
     74 C24         0.7430    6.4810    0.0970 c         1 MOL      0.552026
     75 O13         0.4700    6.7120   -1.1110 o         1 MOL     -0.530146
     76 H32        -1.9430    8.1730    0.4340 hn        1 MOL      0.295383
     77 H33        -0.0970    6.7010    2.1810 h1        1 MOL      0.068605
     78 H34         0.2560    8.1740    1.5260 h1        1 MOL      0.068605
     79 N8          1.6960    5.7000    0.5560 n         1 MOL     -0.554186
     80 C25         2.3560    4.7330   -0.3570 c3        1 MOL      0.086551
     81 C26         1.4770    3.5800   -0.7280 c         1 MOL      1.004812
     82 O14         0.6430    3.1460    0.0660 o         1 MOL     -0.843053
     83 C27         3.7290    4.2180    0.2940 c3        1 MOL      0.337108
     84 C28         4.7840    5.2870    0.2040 c3        1 MOL     -0.244941
     85 O15         4.2010    3.0530   -0.3030 oh        1 MOL     -0.730317
     86 H35         1.8130    5.6810    1.5590 hn        1 MOL      0.308502
     87 H36         2.6280    5.2450   -1.2800 h1        1 MOL      0.043057
     88 H37         3.5280    4.0330    1.3400 h1        1 MOL     -0.000776
     89 H38         5.1340    3.0110   -0.0770 ho        1 MOL      0.447983
     90 H39         4.4230    6.0900    0.8500 hc        1 MOL      0.067063
     91 H40         5.8140    5.0150    0.4720 hc        1 MOL      0.067063
     92 H41         4.7680    5.7210   -0.7980 hc        1 MOL      0.067063
     93 N9          1.5360    3.3180   -2.0630 n         1 MOL     -0.777598
     94 C29         0.8980    2.2900   -2.8540 c3        1 MOL      0.120268
     95 C30         1.4240    0.9310   -2.2840 c         1 MOL      0.578048
     96 O16         1.1050    0.5900   -1.1520 o         1 MOL     -0.599962
     97 C31        -0.6500    2.3560   -2.9720 c3        1 MOL      0.195622
     98 C32        -1.2640    3.7680   -3.0980 c3        1 MOL     -0.016508
     99 C33        -1.0600    1.2950   -4.0490 c3        1 MOL     -0.284270
    100 C34        -0.6720    4.5080   -4.2590 c3        1 MOL     -0.564589
    101 H42         2.1800    3.8750   -2.6050 hn        1 MOL      0.356706
    102 H43         1.3930    2.4050   -3.8150 h1        1 MOL      0.044258
    103 H44        -1.0600    1.9480   -2.0470 hc        1 MOL     -0.026668
    104 H45        -1.1350    4.4550   -2.2650 hc        1 MOL      0.080269
    105 H46        -2.3560    3.7080   -3.1460 hc        1 MOL      0.080269
    106 H47        -2.0460    1.5560   -4.4470 hc        1 MOL      0.055306
    107 H48        -0.3500    1.3430   -4.8840 hc        1 MOL      0.055306
    108 H49        -1.1120    0.2670   -3.6920 hc        1 MOL      0.055306
    109 H50         0.4150    4.5410   -4.3240 hc        1 MOL      0.143345
    110 H51        -1.2200    4.3090   -5.1800 hc        1 MOL      0.143345
    111 H52        -0.9760    5.5350   -4.0360 hc        1 MOL      0.143345
    112 N10         2.0670    0.1350   -3.1550 n         1 MOL     -0.419532
    113 C35         2.4900   -1.2790   -2.8440 c3        1 MOL      0.082057
    114 C36         3.9920   -1.4930   -2.8530 c         1 MOL      0.281630
    115 O17         4.4640   -2.6370   -2.8250 o         1 MOL     -0.562235
    116 C37         1.7520   -2.3070   -3.7240 c3        1 MOL      0.612522
    117 C38         2.0840   -2.3260   -5.2170 c3        1 MOL     -0.286504
    118 O18         0.3700   -2.2200   -3.6110 oh        1 MOL     -0.643115
    119 H53         2.4160    0.5370   -4.0090 hn        1 MOL      0.247476
    120 H54         2.2200   -1.7030   -1.8740 h1        1 MOL      0.053430
    121 H55         1.9790   -3.3050   -3.3520 h1        1 MOL     -0.043882
    122 H56         0.1960   -2.7090   -2.8050 ho        1 MOL      0.341429
    123 H57         2.5340   -1.3560   -5.4200 hc        1 MOL      0.050241
    124 H58         2.8130   -3.1070   -5.4530 hc        1 MOL      0.050241
    125 H59         1.1900   -2.5690   -5.7840 hc        1 MOL      0.050241
    126 N11         4.7710   -0.4380   -2.9310 n         1 MOL     -0.066917
    127 C39         6.1920   -0.5050   -3.0690 c3        1 MOL     -0.017352
    128 C40         6.8800   -0.7830   -1.6990 c         1 MOL      0.617371
    129 O19         7.5860    0.0730   -1.1430 o         1 MOL     -0.547977
    130 C41         6.7480    0.7260   -3.8550 c3        1 MOL      0.170799
    131 C42         6.6400    0.5560   -5.3480 c3        1 MOL     -0.067190
    132 O20         5.9320    1.8890   -3.6160 oh        1 MOL     -0.618394
    133 H60         4.3900    0.4900   -2.8550 hn        1 MOL      0.207350
    134 H61         6.3760   -1.3580   -3.7260 h1        1 MOL      0.074173
    135 H62         7.8130    0.8530   -3.6780 h1        1 MOL      0.052525
    136 H63         6.4730    2.6210   -3.9280 ho        1 MOL      0.410757
    137 H64         5.6320    0.3170   -5.6790 hc        1 MOL      0.011535
    138 H65         6.9670    1.4800   -5.8270 hc        1 MOL      0.011535
    139 H66         7.3800   -0.1990   -5.6200 hc        1 MOL      0.011535
    140 N12         6.7220   -1.9990   -1.1830 n         1 MOL     -0.839220
    141 C43         6.5640   -2.5190    0.2240 c3        1 MOL      0.529227
    142 C44         5.3090   -2.0050    0.8460 c         1 MOL      0.486934
    143 O21         4.7600   -0.9710    0.4510 o         1 MOL     -0.544124
    144 C45         7.7090   -2.2360    1.1650 c3        1 MOL     -0.643312
    145 C46         9.1080   -2.4960    0.4420 c3        1 MOL      0.256351
    146 C47        10.3460   -2.0130    1.2930 c3        1 MOL     -0.033530
    147 C48        11.6470   -2.3080    0.5880 c3        1 MOL     -0.110278
    148 N13        12.1270   -3.7440    0.7010 n4        1 MOL     -0.244730
    149 H67         6.1140   -2.4640   -1.8290 hn        1 MOL      0.366943
    150 H68         6.4040   -3.5920    0.1220 h1        1 MOL     -0.005600
    151 H69         7.6040   -2.8750    2.0420 hc        1 MOL      0.161377
    152 H70         7.6780   -1.1880    1.4540 hc        1 MOL      0.161377
    153 H71         9.1680   -1.9500   -0.5000 hc        1 MOL     -0.016332
    154 H72         9.3210   -3.5530    0.2450 hc        1 MOL     -0.016332
    155 H73        10.4030   -2.4840    2.2730 hc        1 MOL      0.070335
    156 H74        10.3360   -0.9240    1.4110 hc        1 MOL      0.070335
    157 H75        12.4150   -1.6150    0.9230 hx        1 MOL      0.117092
    158 H76        11.5340   -2.0330   -0.4610 hx        1 MOL      0.117092
    159 H77        12.3440   -4.0500    1.6420 hn        1 MOL      0.237925
    160 H78        11.4750   -4.3480    0.2110 hn        1 MOL      0.237925
    161 H79        12.9570   -3.8750    0.1430 hn        1 MOL      0.237925
    162 N14         4.8070   -2.7080    1.8450 n         1 MOL     -0.448168
    163 C49         3.6780   -2.2240    2.6750 c3        1 MOL      0.404129
    164 C50         2.2820   -2.1880    1.9630 c         1 MOL      0.088453
    165 O22         1.4460   -1.2860    2.1820 o         1 MOL     -0.481389
    166 C51         3.6330   -2.9050    4.0220 c3        1 MOL      0.032791
    167 C52         4.8570   -2.5600    4.8630 c3        1 MOL     -0.284930
    168 C53         4.9610   -3.5600    6.0120 c         1 MOL      0.656160
    169 O23         4.8140   -4.8140    5.6920 o         1 MOL     -0.649890
    170 O24         5.1490   -3.1650    7.1850 o         1 MOL     -0.649890
    171 H80         5.2640   -3.5640    2.1160 hn        1 MOL      0.267652
    172 H81         3.7310   -1.1560    2.8930 h1        1 MOL     -0.040256
    173 H82         3.5900   -3.9770    3.8120 hc        1 MOL      0.038729
    174 H83         2.7260   -2.6900    4.5890 hc        1 MOL      0.038729
    175 H84         4.7650   -1.5310    5.2170 hc        1 MOL      0.046360
    176 H85         5.7680   -2.4940    4.2640 hc        1 MOL      0.046360
    177 N15         1.8300   -3.1450    1.1110 n         1 MOL     -0.044097
    178 C54         2.3120   -4.4850    0.8000 c3        1 MOL     -0.082997
    179 H86         2.0210   -4.7470   -0.2170 h1        1 MOL      0.032742
    180 H87         3.3980   -4.5100    0.8850 h1        1 MOL      0.032742
    181 H88         1.8750   -5.2000    1.4980 h1        1 MOL      0.032742
    182 H89         0.9380   -2.8740    0.7090 hn        1 MOL      0.212832
    183 Ca1         0.1260    1.0230    1.3920 Ca        1 MOL      1.837096
    184 O25         3.1300    1.0330    1.2980 oh        1 MOL     -0.885245
    185 H90         3.6800    0.3030    1.0260 ho        1 MOL      0.426101
    186 H91         3.5020    1.8000    0.8590 ho        1 MOL      0.426101
    187 O26         1.5770    1.3100    3.6850 oh        1 MOL     -0.885245
    188 H92         1.3620    1.1140    4.6010 ho        1 MOL      0.426101
    189 H93         2.5190    1.4480    3.6770 ho        1 MOL      0.426101
    190 O27        -1.7960   -0.1020    3.2390 oh        1 MOL     -0.885245
    191 H94        -2.6330   -0.5530    3.1290 ho        1 MOL      0.426101
    192 H95        -2.0080    0.6820    3.7390 ho        1 MOL      0.426101
@<TRIPOS>BOND
     1    1    2 1   
     2    1    4 1   
     3    1    5 1   
     4    1    6 1   
     5    2    3 2   
     6    2    7 1   
     7    7    8 1   
     8    7   15 1   
     9    8    9 1   
    10    8   11 1   
    11    8   16 1   
    12    9   10 2   
    13    9   19 1   
    14   11   12 1   
    15   11   17 1   
    16   11   18 1   
    17   12   13 1   
    18   12   14 1   
    19   19   20 1   
    20   19   28 1   
    21   20   21 1   
    22   20   23 1   
    23   20   29 1   
    24   21   22 2   
    25   21   41 1   
    26   23   24 1   
    27   23   30 1   
    28   23   31 1   
    29   24   25 1   
    30   24   32 1   
    31   24   33 1   
    32   25   26 1   
    33   25   34 1   
    34   25   35 1   
    35   26   27 1   
    36   26   36 1   
    37   26   37 1   
    38   27   38 1   
    39   27   39 1   
    40   27   40 1   
    41   41   42 1   
    42   41   49 1   
    43   42   43 1   
    44   42   45 1   
    45   42   50 1   
    46   43   44 2   
    47   43   53 1   
    48   45   46 1   
    49   45   51 1   
    50   45   52 1   
    51   46   47 1   
    52   46   48 1   
    53   53   54 1   
    54   53   57 1   
    55   54   55 1   
    56   54   58 1   
    57   54   59 1   
    58   55   56 2   
    59   55   60 1   
    60   60   61 1   
    61   60   68 1   
    62   61   62 1   
    63   61   64 1   
    64   61   69 1   
    65   62   63 2   
    66   62   72 1   
    67   64   65 1   
    68   64   70 1   
    69   64   71 1   
    70   65   66 1   
    71   65   67 1   
    72   72   73 1   
    73   72   76 1   
    74   73   74 1   
    75   73   77 1   
    76   73   78 1   
    77   74   75 2   
    78   74   79 1   
    79   79   80 1   
    80   79   86 1   
    81   80   81 1   
    82   80   83 1   
    83   80   87 1   
    84   81   82 2   
    85   81   93 1   
    86   83   84 1   
    87   83   85 1   
    88   83   88 1   
    89   84   90 1   
    90   84   91 1   
    91   84   92 1   
    92   85   89 1   
    93   93   94 1   
    94   93  101 1   
    95   94   95 1   
    96   94   97 1   
    97   94  102 1   
    98   95   96 2   
    99   95  112 1   
   100   97   98 1   
   101   97   99 1   
   102   97  103 1   
   103   98  100 1   
   104   98  104 1   
   105   98  105 1   
   106   99  106 1   
   107   99  107 1   
   108   99  108 1   
   109  100  109 1   
   110  100  110 1   
   111  100  111 1   
   112  112  113 1   
   113  112  119 1   
   114  113  114 1   
   115  113  116 1   
   116  113  120 1   
   117  114  115 2   
   118  114  126 1   
   119  116  117 1   
   120  116  118 1   
   121  116  121 1   
   122  117  123 1   
   123  117  124 1   
   124  117  125 1   
   125  118  122 1   
   126  126  127 1   
   127  126  133 1   
   128  127  128 1   
   129  127  130 1   
   130  127  134 1   
   131  128  129 2   
   132  128  140 1   
   133  130  131 1   
   134  130  132 1   
   135  130  135 1   
   136  131  137 1   
   137  131  138 1   
   138  131  139 1   
   139  132  136 1   
   140  140  141 1   
   141  140  149 1   
   142  141  142 1   
   143  141  144 1   
   144  141  150 1   
   145  142  143 2   
   146  142  162 1   
   147  144  145 1   
   148  144  151 1   
   149  144  152 1   
   150  145  146 1   
   151  145  153 1   
   152  145  154 1   
   153  146  147 1   
   154  146  155 1   
   155  146  156 1   
   156  147  148 1   
   157  147  157 1   
   158  147  158 1   
   159  148  159 1   
   160  148  160 1   
   161  148  161 1   
   162  162  163 1   
   163  162  171 1   
   164  163  164 1   
   165  163  166 1   
   166  163  172 1   
   167  164  165 2   
   168  164  177 1   
   169  166  167 1   
   170  166  173 1   
   171  166  174 1   
   172  167  168 1   
   173  167  175 1   
   174  167  176 1   
   175  168  169 1   
   176  168  170 1   
   177  177  178 1   
   178  177  182 1   
   179  178  179 1   
   180  178  180 1   
   181  178  181 1   
   182  184  185 1   
   183  184  186 1   
   184  187  188 1   
   185  187  189 1   
   186  190  191 1   
   187  190  192 1   
@<TRIPOS>SUBSTRUCTURE
     1 MOL         1 TEMP              0 ****  ****    0 ROOT
