@<TRIPOS>MOLECULE
MOL
  192   187     1     0     0
SMALL
resp


@<TRIPOS>ATOM
      1 C1         -0.8090    3.9480   -2.8410 c3        1 MOL     -0.153918
      2 C2          0.2910    4.0170   -1.7300 c         1 MOL      0.606965
      3 O1          1.0200    3.0350   -1.5660 o         1 MOL     -0.537457
      4 H1         -0.8420    2.9410   -3.2560 hc        1 MOL      0.027615
      5 H2         -1.7780    4.1950   -2.4100 hc        1 MOL      0.027615
      6 H3         -0.5710    4.6600   -3.6330 hc        1 MOL      0.027615
      7 N1          0.3080    5.1980   -1.0120 n         1 MOL     -0.214812
      8 C3          1.0940    5.4610    0.2480 c3        1 MOL     -0.459795
      9 C4          2.6900    5.1820    0.0400 c         1 MOL      0.754815
     10 O2          3.4170    4.8340    0.9680 o         1 MOL     -0.503954
     11 C5          0.5790    4.8150    1.5700 c3        1 MOL     -0.039663
     12 C6         -0.8790    5.1450    1.7600 c         1 MOL      0.650587
     13 O3         -1.4060    6.2980    1.5130 o         1 MOL     -0.700957
     14 O4         -1.5780    4.2870    2.2600 o         1 MOL     -0.700957
     15 H4         -0.4200    5.8880   -1.1190 hn        1 MOL      0.161448
     16 H5          0.9380    6.5290    0.4160 h1        1 MOL      0.116988
     17 H6          1.1350    5.2290    2.4130 hc        1 MOL      0.082674
     18 H7          0.8160    3.7550    1.6170 hc        1 MOL      0.082674
     19 N2          3.1230    5.5570   -1.1790 n         1 MOL     -0.385453
     20 C7          4.4200    5.1580   -1.6400 c3        1 MOL     -0.372792
     21 C8          5.6270    5.6640   -0.8040 c         1 MOL      0.421586
     22 O5          5.5370    6.7940   -0.3020 o         1 MOL     -0.544468
     23 C9          4.6010    5.4270   -3.1700 c3        1 MOL      0.260130
     24 C10         4.9410    6.8990   -3.4730 c3        1 MOL     -0.075347
     25 C11         3.4030    4.8270   -3.8730 c3        1 MOL     -0.063336
     26 C12         5.3260    7.3370   -4.9280 c3        1 MOL     -0.132214
     27 H8          2.4180    5.8640   -1.8240 hn        1 MOL      0.275464
     28 H9          4.4360    4.0690   -1.5880 h1        1 MOL      0.155992
     29 H10         5.5100    4.8820   -3.4400 hc        1 MOL      0.001032
     30 H11         5.8140    7.2750   -2.9460 hc        1 MOL      0.042788
     31 H12         4.1050    7.5080   -3.1370 hc        1 MOL      0.042788
     32 H13         3.5680    4.7390   -4.9440 hc        1 MOL     -0.002284
     33 H14         3.2750    3.8570   -3.4020 hc        1 MOL     -0.002284
     34 H15         2.5360    5.4480   -3.6470 hc        1 MOL     -0.002284
     35 H16         5.4800    8.4130   -4.9220 hc        1 MOL      0.023331
     36 H17         6.2710    6.9070   -5.2670 hc        1 MOL      0.023331
     37 H18         4.5910    7.1630   -5.7110 hc        1 MOL      0.023331
     38 N3          6.6760    4.8860   -0.6260 n         1 MOL     -0.118569
     39 C13         6.9540    3.5500   -1.1990 c3        1 MOL     -0.211830
     40 C14         6.3640    2.4190   -0.3370 c         1 MOL      0.650050
     41 O6          6.1920    1.3110   -0.8750 o         1 MOL     -0.584270
     42 C15         8.5110    3.3140   -1.3970 c3        1 MOL     -0.142020
     43 C16         9.2260    3.5340   -0.0810 c         1 MOL      0.676093
     44 O7          9.4090    2.5150    0.5860 o         1 MOL     -0.688287
     45 O8          9.5250    4.6450    0.3750 o         1 MOL     -0.688287
     46 H19         7.3940    5.3610   -0.1130 hn        1 MOL      0.164633
     47 H20         6.5550    3.4070   -2.2060 h1        1 MOL      0.093638
     48 H21         9.0370    3.9940   -2.0770 hc        1 MOL      0.032499
     49 H22         8.6870    2.2790   -1.7030 hc        1 MOL      0.032499
     50 N4          5.9710    2.7330    0.9100 n         1 MOL     -0.412991
     51 C17         4.9840    1.8730    1.6100 c3        1 MOL     -0.018316
     52 C18         5.6290    0.6300    2.2610 c         1 MOL      0.446199
     53 O9          6.7920    0.4420    2.3870 o         1 MOL     -0.490060
     54 H23         6.1330    3.6680    1.2380 hn        1 MOL      0.329414
     55 H24         4.4010    1.4690    0.7970 h1        1 MOL      0.054750
     56 H25         4.3790    2.5050    2.2620 h1        1 MOL      0.054750
     57 N5          4.8020   -0.3380    2.5140 n         1 MOL     -0.283233
     58 C19         5.2460   -1.6230    2.9880 c3        1 MOL      0.056514
     59 C20         5.9130   -2.5100    1.9220 c         1 MOL      0.370246
     60 O10         6.7440   -3.2980    2.2860 o         1 MOL     -0.514323
     61 C21         3.9920   -2.3320    3.7160 c3        1 MOL     -0.363998
     62 C22         2.6200   -2.1790    3.0140 c         1 MOL      0.790246
     63 O11         1.9310   -1.1780    3.2980 o         1 MOL     -0.695847
     64 O12         2.3160   -2.9010    2.0590 o         1 MOL     -0.695847
     65 H26         3.8200   -0.0860    2.4640 hn        1 MOL      0.196519
     66 H27         5.9120   -1.3440    3.8050 h1        1 MOL      0.095763
     67 H28         3.9490   -1.9410    4.7280 hc        1 MOL      0.055560
     68 H29         4.2700   -3.3910    3.7210 hc        1 MOL      0.055560
     69 N6          5.6530   -2.2430    0.6580 n         1 MOL     -0.023784
     70 C23         6.1070   -3.1470   -0.4200 c3        1 MOL     -0.429785
     71 C24         5.2680   -4.3690   -0.5210 c         1 MOL      0.634451
     72 O13         5.6240   -5.3340   -1.2020 o         1 MOL     -0.600773
     73 H30         5.0490   -1.4740    0.4250 hn        1 MOL      0.227018
     74 H31         7.1280   -3.4890   -0.2500 h1        1 MOL      0.166594
     75 H32         6.0540   -2.7070   -1.4220 h1        1 MOL      0.166594
     76 N7          4.1340   -4.4030    0.2510 n         1 MOL     -0.165815
     77 C25         3.3370   -5.5620    0.5670 c3        1 MOL      0.030947
     78 C26         2.7330   -6.2680   -0.6800 c         1 MOL      0.437601
     79 O14         2.1910   -7.3710   -0.5120 o         1 MOL     -0.533408
     80 C27         4.1480   -6.5650    1.4140 c3        1 MOL     -0.026963
     81 C28         4.6260   -6.0250    2.7150 c3        1 MOL     -0.074957
     82 C29         4.9560   -7.1350    3.6860 c         1 MOL      0.657257
     83 N8          5.3330   -6.7460    4.8730 n         1 MOL     -0.821299
     84 O15         4.8720   -8.3280    3.4370 o         1 MOL     -0.588518
     85 H33         3.9190   -3.5510    0.7510 hn        1 MOL      0.045499
     86 H34         2.5060   -5.2340    1.1940 h1        1 MOL      0.116654
     87 H35         4.9160   -6.9980    0.7710 hc        1 MOL      0.029565
     88 H36         3.4290   -7.3090    1.7270 hc        1 MOL      0.029565
     89 H37         3.7980   -5.4720    3.1410 hc        1 MOL      0.035265
     90 H38         5.4190   -5.3000    2.5420 hc        1 MOL      0.035265
     91 H39         5.3370   -5.7570    5.1010 hn        1 MOL      0.357071
     92 H40         5.6450   -7.4500    5.5240 hn        1 MOL      0.357071
     93 N9          2.6740   -5.6600   -1.8350 n         1 MOL     -0.334805
     94 C30         2.0100   -6.1220   -3.0530 c3        1 MOL     -0.080496
     95 C31         0.7880   -5.2240   -3.3810 c         1 MOL      0.611806
     96 O16        -0.0380   -5.6890   -4.1320 o         1 MOL     -0.563556
     97 C32         2.9720   -6.4660   -4.2090 c3        1 MOL      0.302547
     98 C33         3.7140   -5.1960   -4.7820 c3        1 MOL     -0.368169
     99 C34         4.0400   -7.4830   -3.9160 c3        1 MOL     -0.368169
    100 H41         3.0390   -4.7230   -1.9000 hn        1 MOL      0.182890
    101 H42         1.4470   -7.0240   -2.8070 h1        1 MOL      0.106949
    102 H43         2.3720   -6.8500   -5.0420 hc        1 MOL     -0.042965
    103 H44         4.4790   -4.8670   -4.0760 hc        1 MOL      0.088771
    104 H45         4.3230   -5.4160   -5.6580 hc        1 MOL      0.088771
    105 H46         3.0480   -4.3620   -4.9730 hc        1 MOL      0.088771
    106 H47         4.7790   -7.0480   -3.2340 hc        1 MOL      0.088771
    107 H48         3.5260   -8.3000   -3.3970 hc        1 MOL      0.088771
    108 H49         4.5090   -7.7670   -4.8500 hc        1 MOL      0.088771
    109 N10         0.7030   -4.0380   -2.7180 n         1 MOL     -0.447724
    110 C35        -0.4580   -3.1200   -2.7060 c3        1 MOL      0.183133
    111 C36        -1.2400   -3.1450   -1.4080 c         1 MOL      0.561110
    112 O17        -0.7300   -3.5170   -0.3440 o         1 MOL     -0.534172
    113 C37         0.0380   -1.6930   -3.1370 c3        1 MOL     -0.355737
    114 C38        -1.0520   -0.5820   -3.1280 c         1 MOL      0.632459
    115 N11        -1.0250    0.1810   -2.0560 n         1 MOL     -0.769182
    116 O18        -1.9730   -0.6400   -3.9470 o         1 MOL     -0.552439
    117 H50         1.4590   -3.6810   -2.1540 hn        1 MOL      0.250882
    118 H51        -1.0890   -3.6210   -3.4460 h1        1 MOL      0.050085
    119 H52         0.5880   -1.7190   -4.0760 hc        1 MOL      0.106931
    120 H53         0.7940   -1.3980   -2.4200 hc        1 MOL      0.106931
    121 H54        -0.2780    0.1880   -1.3870 hn        1 MOL      0.387833
    122 H55        -1.7940    0.7980   -1.7980 hn        1 MOL      0.387833
    123 N12        -2.4690   -2.7040   -1.3650 n         1 MOL     -0.520158
    124 C39        -3.3340   -2.6620   -0.2080 c3        1 MOL      0.106515
    125 C40        -4.7180   -2.2520   -0.7050 c         1 MOL      0.668409
    126 O19        -4.8090   -1.4200   -1.5750 o         1 MOL     -0.542449
    127 C41        -2.8190   -1.6010    0.7290 c3        1 MOL     -0.019401
    128 C42        -3.2060   -1.9480    2.1750 ca        1 MOL     -0.112969
    129 C43        -4.1770   -1.2530    2.9090 ca        1 MOL     -0.001977
    130 C44        -2.5820   -3.0940    2.7210 ca        1 MOL     -0.001977
    131 C45        -4.4400   -1.6940    4.2120 ca        1 MOL     -0.356507
    132 C46        -2.7810   -3.4740    4.0550 ca        1 MOL     -0.356507
    133 C47        -3.7210   -2.7820    4.7870 ca        1 MOL      0.391390
    134 O20        -4.0140   -3.1520    6.0430 oh        1 MOL     -0.481580
    135 H56        -2.9120   -2.3720   -2.2190 hn        1 MOL      0.262636
    136 H57        -3.3650   -3.6870    0.1620 h1        1 MOL      0.076386
    137 H58        -3.1730   -0.6030    0.4580 hc        1 MOL      0.067083
    138 H59        -1.7380   -1.5200    0.7410 hc        1 MOL      0.067083
    139 H60        -4.7620   -0.4080    2.5830 ha        1 MOL      0.130615
    140 H61        -1.9270   -3.6450    2.0610 ha        1 MOL      0.130615
    141 H62        -5.2320   -1.3040    4.8360 ha        1 MOL      0.161051
    142 H63        -2.2210   -4.3190    4.4060 ha        1 MOL      0.161051
    143 H64        -4.4900   -2.4800    6.5370 ho        1 MOL      0.327253
    144 N13        -5.8030   -2.6680    0.0010 n         1 MOL     -0.736787
    145 C48        -7.1490   -2.1990   -0.3240 c3        1 MOL      0.296726
    146 C49        -7.7500   -1.1990    0.6720 c         1 MOL      0.567219
    147 O21        -8.0830   -1.5760    1.8060 o         1 MOL     -0.600241
    148 C50        -8.1030   -3.3890   -0.4300 c3        1 MOL      0.042683
    149 C51        -9.5530   -3.0420   -0.6650 c3        1 MOL     -0.410055
    150 C52       -10.3720   -4.2670   -1.1370 c         1 MOL      0.724936
    151 O22       -10.3660   -4.6660   -2.3470 o         1 MOL     -0.715853
    152 O23       -11.0350   -4.8440   -0.2400 o         1 MOL     -0.715853
    153 H65        -5.7250   -3.1310    0.8970 hn        1 MOL      0.300252
    154 H66        -7.0810   -1.6730   -1.2720 h1        1 MOL      0.009935
    155 H67        -8.1210   -3.9690    0.4920 hc        1 MOL      0.036307
    156 H68        -7.6990   -4.0940   -1.1550 hc        1 MOL      0.036307
    157 H69        -9.6820   -2.3170   -1.4610 hc        1 MOL      0.104859
    158 H70        -9.9660   -2.6360    0.2550 hc        1 MOL      0.104859
    159 N14        -7.7790    0.1140    0.4350 n         1 MOL     -0.616655
    160 C53        -7.2120    0.7710   -0.7470 c3        1 MOL     -0.069079
    161 C54        -7.9110    0.5610   -2.1470 c         1 MOL      0.484404
    162 O24        -9.1510    0.4550   -2.2850 o         1 MOL     -0.519288
    163 C55        -7.1890    2.2750   -0.4000 c3        1 MOL     -0.096525
    164 C56        -6.0230    2.9700   -1.1620 c3        1 MOL      0.177529
    165 C57        -5.4640    4.1150   -0.3560 c         1 MOL      0.663842
    166 O25        -6.2020    4.8820    0.2730 o         1 MOL     -0.776957
    167 O26        -4.2120    4.2040   -0.2800 o         1 MOL     -0.776957
    168 H71        -8.3700    0.6890    1.0100 hn        1 MOL      0.354958
    169 H72        -6.1970    0.4120   -0.8970 h1        1 MOL      0.136131
    170 H73        -7.0720    2.4020    0.6790 hc        1 MOL      0.054909
    171 H74        -8.1090    2.7710   -0.6900 hc        1 MOL      0.054909
    172 H75        -6.4120    3.3530   -2.1100 hc        1 MOL     -0.059527
    173 H76        -5.2810    2.2120   -1.3830 hc        1 MOL     -0.059527
    174 N15        -7.1190    0.3190   -3.2140 n         1 MOL     -0.294902
    175 C58        -7.6390    0.0940   -4.6240 c3        1 MOL     -0.134908
    176 H77        -7.6370   -0.9740   -4.8460 h1        1 MOL      0.084782
    177 H78        -8.6560    0.4790   -4.7030 h1        1 MOL      0.084782
    178 H79        -6.9970    0.6130   -5.3360 h1        1 MOL      0.084782
    179 H80        -6.1270    0.4430   -3.0990 hn        1 MOL      0.248037
    180 Ca1        -3.9360    5.8570    1.7460 Ca        1 MOL      1.678939
    181 O27        -4.2400    8.6010    2.0680 oh        1 MOL     -0.798058
    182 H81        -4.9350    9.1700    2.3950 ho        1 MOL      0.384391
    183 H82        -3.4320    9.0400    2.3320 ho        1 MOL      0.384391
    184 O28        -6.2820    6.3340    3.0510 oh        1 MOL     -0.798058
    185 H83        -6.6370    5.5030    3.3750 ho        1 MOL      0.384391
    186 H84        -7.0070    6.9540    3.1330 ho        1 MOL      0.384391
    187 O29        -4.7200    3.6620    2.7570 oh        1 MOL     -0.798058
    188 H85        -4.4120    3.1380    3.4890 ho        1 MOL      0.384391
    189 H86        -5.6550    3.4440    2.6830 ho        1 MOL      0.384391
    190 O30        -3.5600    6.7470    4.2130 oh        1 MOL     -0.798058
    191 H87        -3.5760    6.3390    5.0760 ho        1 MOL      0.384391
    192 H88        -3.9480    7.6170    4.3390 ho        1 MOL      0.384391
@<TRIPOS>BOND
     1    1    2 1   
     2    1    4 1   
     3    1    5 1   
     4    1    6 1   
     5    2    3 2   
     6    2    7 1   
     7    7    8 1   
     8    7   15 1   
     9    8    9 1   
    10    8   11 1   
    11    8   16 1   
    12    9   10 2   
    13    9   19 1   
    14   11   12 1   
    15   11   17 1   
    16   11   18 1   
    17   12   13 1   
    18   12   14 1   
    19   19   20 1   
    20   19   27 1   
    21   20   21 1   
    22   20   23 1   
    23   20   28 1   
    24   21   22 2   
    25   21   38 1   
    26   23   24 1   
    27   23   25 1   
    28   23   29 1   
    29   24   26 1   
    30   24   30 1   
    31   24   31 1   
    32   25   32 1   
    33   25   33 1   
    34   25   34 1   
    35   26   35 1   
    36   26   36 1   
    37   26   37 1   
    38   38   39 1   
    39   38   46 1   
    40   39   40 1   
    41   39   42 1   
    42   39   47 1   
    43   40   41 2   
    44   40   50 1   
    45   42   43 1   
    46   42   48 1   
    47   42   49 1   
    48   43   44 1   
    49   43   45 1   
    50   50   51 1   
    51   50   54 1   
    52   51   52 1   
    53   51   55 1   
    54   51   56 1   
    55   52   53 2   
    56   52   57 1   
    57   57   58 1   
    58   57   65 1   
    59   58   59 1   
    60   58   61 1   
    61   58   66 1   
    62   59   60 2   
    63   59   69 1   
    64   61   62 1   
    65   61   67 1   
    66   61   68 1   
    67   62   63 1   
    68   62   64 1   
    69   69   70 1   
    70   69   73 1   
    71   70   71 1   
    72   70   74 1   
    73   70   75 1   
    74   71   72 2   
    75   71   76 1   
    76   76   77 1   
    77   76   85 1   
    78   77   78 1   
    79   77   80 1   
    80   77   86 1   
    81   78   79 2   
    82   78   93 1   
    83   80   81 1   
    84   80   87 1   
    85   80   88 1   
    86   81   82 1   
    87   81   89 1   
    88   81   90 1   
    89   82   83 1   
    90   82   84 2   
    91   83   91 1   
    92   83   92 1   
    93   93   94 1   
    94   93  100 1   
    95   94   95 1   
    96   94   97 1   
    97   94  101 1   
    98   95   96 2   
    99   95  109 1   
   100   97   98 1   
   101   97   99 1   
   102   97  102 1   
   103   98  103 1   
   104   98  104 1   
   105   98  105 1   
   106   99  106 1   
   107   99  107 1   
   108   99  108 1   
   109  109  110 1   
   110  109  117 1   
   111  110  111 1   
   112  110  113 1   
   113  110  118 1   
   114  111  112 2   
   115  111  123 1   
   116  113  114 1   
   117  113  119 1   
   118  113  120 1   
   119  114  115 1   
   120  114  116 2   
   121  115  121 1   
   122  115  122 1   
   123  123  124 1   
   124  123  135 1   
   125  124  125 1   
   126  124  127 1   
   127  124  136 1   
   128  125  126 2   
   129  125  144 1   
   130  127  128 1   
   131  127  137 1   
   132  127  138 1   
   133  128  129 ar  
   134  128  130 ar  
   135  129  131 ar  
   136  129  139 1   
   137  130  132 ar  
   138  130  140 1   
   139  131  133 ar  
   140  131  141 1   
   141  132  133 ar  
   142  132  142 1   
   143  133  134 1   
   144  134  143 1   
   145  144  145 1   
   146  144  153 1   
   147  145  146 1   
   148  145  148 1   
   149  145  154 1   
   150  146  147 2   
   151  146  159 1   
   152  148  149 1   
   153  148  155 1   
   154  148  156 1   
   155  149  150 1   
   156  149  157 1   
   157  149  158 1   
   158  150  151 1   
   159  150  152 1   
   160  159  160 1   
   161  159  168 1   
   162  160  161 1   
   163  160  163 1   
   164  160  169 1   
   165  161  162 2   
   166  161  174 1   
   167  163  164 1   
   168  163  170 1   
   169  163  171 1   
   170  164  165 1   
   171  164  172 1   
   172  164  173 1   
   173  165  166 1   
   174  165  167 1   
   175  174  175 1   
   176  174  179 1   
   177  175  176 1   
   178  175  177 1   
   179  175  178 1   
   180  181  182 1   
   181  181  183 1   
   182  184  185 1   
   183  184  186 1   
   184  187  188 1   
   185  187  189 1   
   186  190  191 1   
   187  190  192 1   
@<TRIPOS>SUBSTRUCTURE
     1 MOL         1 TEMP              0 ****  ****    0 ROOT
