@<TRIPOS>MOLECULE
MOL
  189   185     1     0     0
SMALL
resp


@<TRIPOS>ATOM
      1 C1          9.4850    1.5940    0.5830 c3        1 MOL     -0.687062
      2 C2          8.2340    0.8860    0.1360 c         1 MOL      0.837689
      3 O1          7.1610    1.0270    0.7590 o         1 MOL     -0.703023
      4 H1          9.2160    2.5280    1.0760 hc        1 MOL      0.185755
      5 H2         10.0320    0.9600    1.2800 hc        1 MOL      0.185755
      6 H3         10.1110    1.8080   -0.2830 hc        1 MOL      0.185755
      7 N1          8.2640    0.0670   -0.9630 n         1 MOL     -0.581218
      8 C3          7.2430   -0.5320   -1.7870 c3        1 MOL      0.114962
      9 C4          6.8530   -1.9160   -1.2660 c         1 MOL      0.538725
     10 O2          6.4990   -2.8310   -2.0030 o         1 MOL     -0.452986
     11 C5          7.7710   -0.6530   -3.2010 c3        1 MOL     -0.112418
     12 C6          8.9910   -1.4250   -3.5120 c         1 MOL      0.628555
     13 O3          8.9670   -2.4480   -4.2500 o         1 MOL     -0.622795
     14 O4         10.0270   -1.0700   -2.9300 o         1 MOL     -0.622795
     15 H4          9.1020    0.1610   -1.5150 hn        1 MOL      0.201092
     16 H5          6.3210    0.0320   -1.8640 h1        1 MOL      0.052169
     17 H6          7.8710    0.3590   -3.6030 hc        1 MOL      0.040057
     18 H7          6.8640   -0.9970   -3.7030 hc        1 MOL      0.040057
     19 N2          6.8500   -2.0000    0.0760 n         1 MOL     -0.349222
     20 C7          6.5370   -3.2470    0.7860 c3        1 MOL      0.006446
     21 C8          5.0700   -3.6760    0.6310 c         1 MOL      0.506106
     22 O5          4.8480   -4.8910    0.5250 o         1 MOL     -0.533325
     23 C9          6.9700   -3.0680    2.2900 c3        1 MOL     -0.269911
     24 C10         8.4670   -3.0600    2.4360 c3        1 MOL      0.316613
     25 C11         8.8490   -2.4280    3.7750 c3        1 MOL      0.035013
     26 C12        10.3550   -2.0720    4.0680 c3        1 MOL      0.117974
     27 N3         10.5670   -1.6650    5.4460 n4        1 MOL     -0.223650
     28 H8          7.1260   -1.1650    0.5820 hn        1 MOL      0.274430
     29 H9          7.1520   -4.0070    0.3000 h1        1 MOL      0.095843
     30 H10         6.6220   -3.8930    2.9100 hc        1 MOL      0.077721
     31 H11         6.4580   -2.1840    2.6840 hc        1 MOL      0.077721
     32 H12         8.9540   -2.4570    1.6670 hc        1 MOL     -0.050108
     33 H13         8.8850   -4.0630    2.3770 hc        1 MOL     -0.050108
     34 H14         8.5020   -3.0840    4.5730 hc        1 MOL     -0.036555
     35 H15         8.3140   -1.4770    3.7310 hc        1 MOL     -0.036555
     36 H16        10.5830   -1.2550    3.3850 hx        1 MOL      0.026201
     37 H17        10.8840   -2.9810    3.8160 hx        1 MOL      0.026201
     38 H18        10.4020   -2.4400    6.0800 hn        1 MOL      0.244568
     39 H19        11.5150   -1.3520    5.5830 hn        1 MOL      0.244568
     40 H20        10.0030   -0.8930    5.7910 hn        1 MOL      0.244568
     41 N4          4.0310   -2.8110    0.5560 n         1 MOL     -0.596919
     42 C13         4.0010   -1.4490    1.0010 c3        1 MOL      0.499685
     43 C14         3.9130   -0.4250   -0.1300 c         1 MOL      0.209881
     44 O6          3.6030   -0.7890   -1.2740 o         1 MOL     -0.449130
     45 C15         2.8330   -1.2480    1.9330 c3        1 MOL     -0.242672
     46 C16         1.4530   -1.8340    1.4200 c         1 MOL      0.696200
     47 O7          0.6050   -1.0470    0.9580 o         1 MOL     -0.669107
     48 O8          1.3440   -3.0960    1.3330 o         1 MOL     -0.669107
     49 H21         3.1680   -3.2980    0.4140 hn        1 MOL      0.400972
     50 H22         4.9150   -1.2210    1.5500 h1        1 MOL     -0.041932
     51 H23         2.7690   -0.2140    2.2520 hc        1 MOL      0.006549
     52 H24         3.0470   -1.8370    2.8260 hc        1 MOL      0.006549
     53 N5          4.1050    0.8210    0.2330 n         1 MOL     -0.225065
     54 C17         4.0790    1.8510   -0.7960 c3        1 MOL     -0.211225
     55 C18         2.6610    2.4280   -1.1460 c         1 MOL      0.396604
     56 O9          1.5730    1.9610   -0.7300 o         1 MOL     -0.587503
     57 H25         4.6000    1.0250    1.0830 hn        1 MOL      0.278814
     58 H26         4.3270    1.3240   -1.7190 h1        1 MOL      0.152754
     59 H27         4.8400    2.5990   -0.5620 h1        1 MOL      0.152754
     60 N6          2.7240    3.3390   -2.1440 n         1 MOL     -0.389448
     61 C19         1.6590    4.0930   -2.7070 c3        1 MOL      0.208685
     62 C20         2.1730    5.5130   -2.8890 c         1 MOL      0.453928
     63 O10         3.4380    5.7510   -2.9320 o         1 MOL     -0.548557
     64 C21         1.2270    3.3900   -3.9990 c3        1 MOL     -0.324335
     65 C22         0.6640    1.9640   -3.8260 c         1 MOL      0.786123
     66 O11        -0.4200    1.6400   -3.2970 o         1 MOL     -0.709140
     67 O12         1.3150    1.0760   -4.5240 o         1 MOL     -0.709140
     68 H28         3.6680    3.6390   -2.3520 hn        1 MOL      0.274113
     69 H29         0.8000    4.1300   -2.0280 h1        1 MOL      0.005477
     70 H30         2.0160    3.4200   -4.7430 hc        1 MOL      0.091752
     71 H31         0.4030    3.9040   -4.4880 hc        1 MOL      0.091752
     72 N7          1.3750    6.5710   -2.9990 n         1 MOL     -0.408775
     73 C23        -0.0850    6.5960   -3.1570 c3        1 MOL      0.036703
     74 C24        -0.8320    6.4030   -1.8350 c         1 MOL      0.536179
     75 O13        -0.4740    6.9420   -0.8200 o         1 MOL     -0.535463
     76 H32         1.8750    7.4250   -3.1580 hn        1 MOL      0.318132
     77 H33        -0.4930    5.8170   -3.7860 h1        1 MOL      0.038766
     78 H34        -0.4120    7.5280   -3.6160 h1        1 MOL      0.038766
     79 N8         -1.7710    5.4370   -1.8470 n         1 MOL     -0.366943
     80 C25        -2.5010    4.8890   -0.6620 c3        1 MOL     -0.035258
     81 C26        -1.7410    3.7950    0.1700 c         1 MOL      0.759358
     82 O14        -1.1730    2.8800   -0.4050 o         1 MOL     -0.571308
     83 C27        -3.9110    4.3340   -1.0300 c3        1 MOL      0.174875
     84 C28        -4.0280    3.4530   -2.2940 c3        1 MOL     -0.066981
     85 O15        -4.7750    5.3810   -1.1840 oh        1 MOL     -0.603094
     86 H35        -2.0590    5.1370   -2.7630 hn        1 MOL      0.248676
     87 H36        -2.6080    5.7850   -0.0430 h1        1 MOL      0.105896
     88 H37        -4.2280    3.7470   -0.1670 h1        1 MOL      0.003696
     89 H38        -5.6390    4.9960   -1.3180 ho        1 MOL      0.398255
     90 H39        -3.2160    2.7290   -2.2970 hc        1 MOL      0.027858
     91 H40        -5.0020    2.9560   -2.3240 hc        1 MOL      0.027858
     92 H41        -4.1200    4.0850   -3.1860 hc        1 MOL      0.027858
     93 N9         -1.7180    3.8960    1.5170 n         1 MOL     -0.752150
     94 C29        -1.1310    2.9910    2.4960 c3        1 MOL      0.043969
     95 C30        -1.8340    1.6220    2.5730 c         1 MOL      0.810554
     96 O16        -1.7440    0.8330    1.6200 o         1 MOL     -0.666601
     97 C31         0.4050    2.8290    2.4120 c3        1 MOL      0.402925
     98 C32         1.1090    4.1400    2.0610 c3        1 MOL     -0.234851
     99 C33         0.8610    1.9970    3.6700 c3        1 MOL     -0.301795
    100 C34         1.0470    5.1850    3.1200 c3        1 MOL     -0.225877
    101 H42        -2.1810    4.6960    1.9320 hn        1 MOL      0.328936
    102 H43        -1.2920    3.5470    3.4170 h1        1 MOL      0.059080
    103 H44         0.7020    2.1850    1.5940 hc        1 MOL     -0.154643
    104 H45         0.5770    4.5150    1.1780 hc        1 MOL      0.142030
    105 H46         2.1740    4.0490    1.8510 hc        1 MOL      0.142030
    106 H47         0.7440    0.9420    3.4330 hc        1 MOL      0.060721
    107 H48         1.9280    2.1580    3.7820 hc        1 MOL      0.060721
    108 H49         0.3070    2.3460    4.5460 hc        1 MOL      0.060721
    109 H50         1.7410    4.8980    3.9110 hc        1 MOL      0.053456
    110 H51         1.3340    6.1790    2.7530 hc        1 MOL      0.053456
    111 H52         0.0560    5.1770    3.5790 hc        1 MOL      0.053456
    112 N10        -2.4260    1.3470    3.7060 n         1 MOL     -0.614271
    113 C35        -2.8600    0.0470    4.2140 c3        1 MOL     -0.263903
    114 C36        -4.1740   -0.5810    3.6060 c         1 MOL      0.532529
    115 O17        -4.5230   -1.7690    3.8080 o         1 MOL     -0.515208
    116 C37        -3.0290    0.0460    5.7500 c3        1 MOL      0.504479
    117 C38        -4.2090    0.8360    6.2070 c3        1 MOL     -0.283988
    118 O18        -1.8560    0.5220    6.3930 oh        1 MOL     -0.595207
    119 H53        -2.3500    2.1220    4.3420 hn        1 MOL      0.307449
    120 H54        -2.0360   -0.6660    4.1020 h1        1 MOL      0.150421
    121 H55        -3.2740   -0.9550    6.1090 h1        1 MOL     -0.012074
    122 H56        -1.1660   -0.1220    6.2020 ho        1 MOL      0.375672
    123 H57        -5.0940    0.4150    5.7170 hc        1 MOL      0.073710
    124 H58        -4.2310    0.6540    7.2800 hc        1 MOL      0.073710
    125 H59        -4.0810    1.8880    5.9770 hc        1 MOL      0.073710
    126 N11        -4.9410    0.2840    2.8240 n         1 MOL     -0.089528
    127 C39        -6.2750   -0.0600    2.2520 c3        1 MOL     -0.263395
    128 C40        -6.1570   -0.6920    0.9020 c         1 MOL      0.500144
    129 O19        -5.3670   -0.2380    0.0500 o         1 MOL     -0.482518
    130 C41        -7.3860    1.0850    2.3300 c3        1 MOL      0.401922
    131 C42        -7.6820    1.4500    3.8300 c3        1 MOL     -0.451961
    132 O20        -7.0310    2.2710    1.6750 oh        1 MOL     -0.612802
    133 H60        -4.5740    1.2010    2.6080 hn        1 MOL      0.162526
    134 H61        -6.7210   -0.8110    2.9100 h1        1 MOL      0.105347
    135 H62        -8.3200    0.7920    1.8680 h1        1 MOL      0.043296
    136 H63        -6.1880    2.5730    2.0240 ho        1 MOL      0.392255
    137 H64        -8.1350    0.5410    4.2110 hc        1 MOL      0.115121
    138 H65        -6.7940    1.7570    4.3810 hc        1 MOL      0.115121
    139 H66        -8.3680    2.3030    3.8750 hc        1 MOL      0.115121
    140 N12        -6.8700   -1.8120    0.6320 n         1 MOL     -0.400455
    141 C43        -6.6560   -2.7640   -0.4710 c3        1 MOL      0.088315
    142 C44        -5.3090   -2.7330   -1.1770 c         1 MOL      0.599095
    143 O21        -5.1920   -2.1250   -2.2360 o         1 MOL     -0.545390
    144 C45        -7.8060   -2.5990   -1.5120 c3        1 MOL     -0.331760
    145 C46        -9.2380   -2.4260   -0.9980 c3        1 MOL      0.285672
    146 C47       -10.1640   -2.2670   -2.2390 c3        1 MOL     -0.140655
    147 C48       -11.6730   -1.9510   -1.8420 c3        1 MOL     -0.039939
    148 N13       -11.9190   -0.7160   -1.1250 n4        1 MOL     -0.164753
    149 H67        -7.5660   -1.9670    1.3490 hn        1 MOL      0.241448
    150 H68        -6.6960   -3.7550   -0.0130 h1        1 MOL      0.038682
    151 H69        -7.8290   -3.4540   -2.1860 hc        1 MOL      0.103799
    152 H70        -7.6610   -1.6790   -2.0800 hc        1 MOL      0.103799
    153 H71        -9.3690   -1.6410   -0.2600 hc        1 MOL     -0.063522
    154 H72        -9.5660   -3.3660   -0.5500 hc        1 MOL     -0.063522
    155 H73       -10.0770   -3.1740   -2.8350 hc        1 MOL      0.088211
    156 H74        -9.6980   -1.4430   -2.7830 hc        1 MOL      0.088211
    157 H75       -12.0000   -2.7720   -1.1990 hx        1 MOL      0.094755
    158 H76       -12.3070   -1.9900   -2.7260 hx        1 MOL      0.094755
    159 H77       -11.5360   -0.6870   -0.1830 hn        1 MOL      0.208461
    160 H78       -11.6580    0.0860   -1.6770 hn        1 MOL      0.208461
    161 H79       -12.9120   -0.5820   -0.9680 hn        1 MOL      0.208461
    162 N14        -4.3080   -3.5270   -0.7450 n         1 MOL     -0.468110
    163 C49        -2.9900   -3.7360   -1.4010 c3        1 MOL      0.180529
    164 C50        -1.8820   -3.1580   -0.6730 c         1 MOL      0.474345
    165 O22        -1.4320   -2.0860   -1.0420 o         1 MOL     -0.680799
    166 C51        -2.8600   -5.1970   -1.9260 c3        1 MOL     -0.047866
    167 C52        -3.7780   -5.6300   -3.1290 c3        1 MOL     -0.198689
    168 C53        -3.7580   -7.1860   -3.3720 c         1 MOL      0.656110
    169 O23        -3.4500   -7.5670   -4.5150 o         1 MOL     -0.609624
    170 O24        -3.9860   -7.9440   -2.3930 o         1 MOL     -0.609624
    171 H80        -4.4840   -3.9640    0.1490 hn        1 MOL      0.278672
    172 H81        -3.0280   -3.1520   -2.3240 h1        1 MOL      0.067525
    173 H82        -3.1130   -5.8940   -1.1240 hc        1 MOL      0.052392
    174 H83        -1.8320   -5.4120   -2.2230 hc        1 MOL      0.052392
    175 H84        -3.4990   -5.1570   -4.0810 hc        1 MOL      0.042884
    176 H85        -4.7910   -5.3040   -2.8560 hc        1 MOL      0.042884
    177 N15        -1.3810   -3.6550    0.4460 n         1 MOL     -0.324260
    178 C54        -1.7250   -4.8570    1.2330 c3        1 MOL     -0.086274
    179 H86        -0.8760   -5.5410    1.2410 h1        1 MOL      0.057378
    180 H87        -1.9660   -4.5660    2.2550 h1        1 MOL      0.057378
    181 H88        -2.5860   -5.3520    0.7830 h1        1 MOL      0.057378
    182 H89        -0.6040   -3.1080    0.7800 hn        1 MOL      0.331585
    183 Ca1        -0.5110    0.3710   -0.7460 Ca        1 MOL      1.799980
    184 O25         1.3380   -0.6710   -2.4430 oh        1 MOL     -0.914727
    185 H90         2.2640   -0.7430   -2.1930 ho        1 MOL      0.435035
    186 H91         1.3510   -0.1410   -3.2480 ho        1 MOL      0.435035
    187 O26        -3.0910    0.2140   -1.1670 oh        1 MOL     -0.914727
    188 H92        -3.9400    0.3180   -0.7500 ho        1 MOL      0.435035
    189 H93        -3.2530   -0.3400   -1.9280 ho        1 MOL      0.435035
@<TRIPOS>BOND
     1    1    2 1   
     2    1    4 1   
     3    1    5 1   
     4    1    6 1   
     5    2    3 2   
     6    2    7 1   
     7    7    8 1   
     8    7   15 1   
     9    8    9 1   
    10    8   11 1   
    11    8   16 1   
    12    9   10 2   
    13    9   19 1   
    14   11   12 1   
    15   11   17 1   
    16   11   18 1   
    17   12   13 1   
    18   12   14 1   
    19   19   20 1   
    20   19   28 1   
    21   20   21 1   
    22   20   23 1   
    23   20   29 1   
    24   21   22 2   
    25   21   41 1   
    26   23   24 1   
    27   23   30 1   
    28   23   31 1   
    29   24   25 1   
    30   24   32 1   
    31   24   33 1   
    32   25   26 1   
    33   25   34 1   
    34   25   35 1   
    35   26   27 1   
    36   26   36 1   
    37   26   37 1   
    38   27   38 1   
    39   27   39 1   
    40   27   40 1   
    41   41   42 1   
    42   41   49 1   
    43   42   43 1   
    44   42   45 1   
    45   42   50 1   
    46   43   44 2   
    47   43   53 1   
    48   45   46 1   
    49   45   51 1   
    50   45   52 1   
    51   46   47 1   
    52   46   48 1   
    53   53   54 1   
    54   53   57 1   
    55   54   55 1   
    56   54   58 1   
    57   54   59 1   
    58   55   56 2   
    59   55   60 1   
    60   60   61 1   
    61   60   68 1   
    62   61   62 1   
    63   61   64 1   
    64   61   69 1   
    65   62   63 2   
    66   62   72 1   
    67   64   65 1   
    68   64   70 1   
    69   64   71 1   
    70   65   66 1   
    71   65   67 1   
    72   72   73 1   
    73   72   76 1   
    74   73   74 1   
    75   73   77 1   
    76   73   78 1   
    77   74   75 2   
    78   74   79 1   
    79   79   80 1   
    80   79   86 1   
    81   80   81 1   
    82   80   83 1   
    83   80   87 1   
    84   81   82 2   
    85   81   93 1   
    86   83   84 1   
    87   83   85 1   
    88   83   88 1   
    89   84   90 1   
    90   84   91 1   
    91   84   92 1   
    92   85   89 1   
    93   93   94 1   
    94   93  101 1   
    95   94   95 1   
    96   94   97 1   
    97   94  102 1   
    98   95   96 2   
    99   95  112 1   
   100   97   98 1   
   101   97   99 1   
   102   97  103 1   
   103   98  100 1   
   104   98  104 1   
   105   98  105 1   
   106   99  106 1   
   107   99  107 1   
   108   99  108 1   
   109  100  109 1   
   110  100  110 1   
   111  100  111 1   
   112  112  113 1   
   113  112  119 1   
   114  113  114 1   
   115  113  116 1   
   116  113  120 1   
   117  114  115 2   
   118  114  126 1   
   119  116  117 1   
   120  116  118 1   
   121  116  121 1   
   122  117  123 1   
   123  117  124 1   
   124  117  125 1   
   125  118  122 1   
   126  126  127 1   
   127  126  133 1   
   128  127  128 1   
   129  127  130 1   
   130  127  134 1   
   131  128  129 2   
   132  128  140 1   
   133  130  131 1   
   134  130  132 1   
   135  130  135 1   
   136  131  137 1   
   137  131  138 1   
   138  131  139 1   
   139  132  136 1   
   140  140  141 1   
   141  140  149 1   
   142  141  142 1   
   143  141  144 1   
   144  141  150 1   
   145  142  143 2   
   146  142  162 1   
   147  144  145 1   
   148  144  151 1   
   149  144  152 1   
   150  145  146 1   
   151  145  153 1   
   152  145  154 1   
   153  146  147 1   
   154  146  155 1   
   155  146  156 1   
   156  147  148 1   
   157  147  157 1   
   158  147  158 1   
   159  148  159 1   
   160  148  160 1   
   161  148  161 1   
   162  162  163 1   
   163  162  171 1   
   164  163  164 1   
   165  163  166 1   
   166  163  172 1   
   167  164  165 2   
   168  164  177 1   
   169  166  167 1   
   170  166  173 1   
   171  166  174 1   
   172  167  168 1   
   173  167  175 1   
   174  167  176 1   
   175  168  169 1   
   176  168  170 1   
   177  177  178 1   
   178  177  182 1   
   179  178  179 1   
   180  178  180 1   
   181  178  181 1   
   182  184  185 1   
   183  184  186 1   
   184  187  188 1   
   185  187  189 1   
@<TRIPOS>SUBSTRUCTURE
     1 MOL         1 TEMP              0 ****  ****    0 ROOT
