@<TRIPOS>MOLECULE
MOL
  192   187     1     0     0
SMALL
resp


@<TRIPOS>ATOM
      1 C1         12.5070    5.1720   -2.6150 c3        1 MOL     -0.214744
      2 C2         12.2930    3.6520   -2.2120 c         1 MOL      0.561686
      3 O1         13.1370    2.8380   -2.5220 o         1 MOL     -0.575142
      4 H1         13.5280    5.3130   -2.9710 hc        1 MOL      0.055118
      5 H2         11.8070    5.4400   -3.4060 hc        1 MOL      0.055118
      6 H3         12.3340    5.8070   -1.7460 hc        1 MOL      0.055118
      7 N1         11.2270    3.3510   -1.5280 n         1 MOL     -0.148175
      8 C3         10.9710    2.1040   -0.8110 c3        1 MOL     -0.187999
      9 C4          9.4500    1.7630   -0.9790 c         1 MOL      0.402920
     10 O2          8.6320    2.5780   -1.3420 o         1 MOL     -0.537046
     11 C5         11.1600    2.3060    0.7070 c3        1 MOL     -0.039587
     12 C6         10.5850    3.5480    1.3930 c         1 MOL      0.686923
     13 O3          9.7570    4.2760    0.7510 o         1 MOL     -0.694154
     14 O4         11.0040    3.8350    2.5340 o         1 MOL     -0.694154
     15 H4         10.5350    4.0600   -1.3650 hn        1 MOL      0.055102
     16 H5         11.5630    1.2550   -1.1460 h1        1 MOL      0.104381
     17 H6         12.2400    2.4320    0.7940 hc        1 MOL      0.053405
     18 H7         10.8340    1.4270    1.2700 hc        1 MOL      0.053405
     19 N2          9.1660    0.4900   -0.7200 n         1 MOL     -0.258481
     20 C7          7.8290   -0.1390   -1.1070 c3        1 MOL     -0.008594
     21 C8          7.0030   -0.5830    0.1420 c         1 MOL      0.407400
     22 O5          7.5020   -1.2700    1.0610 o         1 MOL     -0.482495
     23 C9          8.0670   -1.3250   -2.0540 c3        1 MOL     -0.021287
     24 C10         6.8250   -2.0720   -2.5250 c3        1 MOL      0.071288
     25 C11         7.2400   -3.4540   -3.1000 c3        1 MOL      0.202785
     26 C12         6.1520   -4.0590   -4.0250 c3        1 MOL      0.074787
     27 N3          5.9770   -5.5350   -3.8570 n4        1 MOL     -0.385086
     28 H8          9.8610   -0.1980   -0.4520 hn        1 MOL      0.276751
     29 H9          7.2260    0.5190   -1.7370 h1        1 MOL      0.076481
     30 H10         8.7580   -2.0110   -1.5640 hc        1 MOL      0.010008
     31 H11         8.6660   -1.0480   -2.9260 hc        1 MOL      0.010008
     32 H12         6.3840   -1.3960   -3.2670 hc        1 MOL     -0.028455
     33 H13         6.1520   -2.2720   -1.6910 hc        1 MOL     -0.028455
     34 H14         7.6340   -4.0820   -2.2980 hc        1 MOL     -0.034231
     35 H15         8.1270   -3.3960   -3.7150 hc        1 MOL     -0.034231
     36 H16         6.3250   -3.7380   -5.0500 hx        1 MOL      0.039595
     37 H17         5.2400   -3.5300   -3.7550 hx        1 MOL      0.039595
     38 H18         5.8510   -5.6810   -2.8630 hn        1 MOL      0.300129
     39 H19         5.2000   -5.8950   -4.3910 hn        1 MOL      0.300129
     40 H20         6.7610   -6.0730   -4.1890 hn        1 MOL      0.300129
     41 N4          5.7650   -0.0610    0.2340 n         1 MOL     -0.405406
     42 C13         4.9060   -0.0150    1.5000 c3        1 MOL      0.073917
     43 C14         3.4040    0.1830    1.3080 c         1 MOL      0.242994
     44 O6          2.9720    0.9220    0.4040 o         1 MOL     -0.523381
     45 C15         5.4850    1.1130    2.4060 c3        1 MOL      0.022022
     46 C16         6.0110    2.4050    1.8000 c         1 MOL      0.623018
     47 O7          5.2770    3.3570    1.4240 o         1 MOL     -0.698511
     48 O8          7.2310    2.5120    1.6200 o         1 MOL     -0.698511
     49 H21         5.3410    0.3850   -0.5620 hn        1 MOL      0.249351
     50 H22         5.0360   -0.9670    2.0190 h1        1 MOL      0.098243
     51 H23         6.3000    0.7540    3.0360 hc        1 MOL      0.023573
     52 H24         4.8220    1.4300    3.2080 hc        1 MOL      0.023573
     53 N5          2.5470   -0.2660    2.2320 n         1 MOL     -0.154407
     54 C17         2.6400   -1.0760    3.4170 c3        1 MOL     -0.237183
     55 C18         2.7960   -2.5720    3.1760 c         1 MOL      0.737035
     56 O9          3.1290   -2.9930    2.0500 o         1 MOL     -0.631734
     57 H25         1.6090    0.0720    2.0850 hn        1 MOL      0.291246
     58 H26         1.6890   -0.7930    3.8550 h1        1 MOL      0.088319
     59 H27         3.5050   -0.7040    3.9710 h1        1 MOL      0.088319
     60 N6          2.4260   -3.3510    4.1920 n         1 MOL     -0.511521
     61 C19         2.4430   -4.8370    4.0930 c3        1 MOL      0.038592
     62 C20         1.4570   -5.2800    2.9200 c         1 MOL      0.398709
     63 O10         0.2590   -5.0320    2.9100 o         1 MOL     -0.471742
     64 C21         1.8850   -5.3960    5.4300 c3        1 MOL     -0.235568
     65 C22         1.7910   -6.8600    5.3190 c         1 MOL      0.789108
     66 O11         0.8520   -7.4040    5.9590 o         1 MOL     -0.698635
     67 O12         2.6490   -7.4620    4.7350 o         1 MOL     -0.698635
     68 H28         2.3320   -2.9600    5.1110 hn        1 MOL      0.302727
     69 H29         3.4580   -5.1900    3.9340 h1        1 MOL      0.059702
     70 H30         0.8770   -5.0210    5.6390 hc        1 MOL      0.067721
     71 H31         2.5750   -5.1220    6.2300 hc        1 MOL      0.067721
     72 N7          1.9920   -5.9500    1.9510 n         1 MOL     -0.123804
     73 C23         1.2310   -6.5740    0.8820 c3        1 MOL     -0.231221
     74 C24         0.6270   -5.6970   -0.2080 c         1 MOL      0.546047
     75 O13        -0.3750   -6.0580   -0.8320 o         1 MOL     -0.555641
     76 H32         2.9860   -6.1310    1.9870 hn        1 MOL      0.211574
     77 H33         0.4010   -7.1260    1.3390 h1        1 MOL      0.114645
     78 H34         1.8830   -7.3110    0.4280 h1        1 MOL      0.114645
     79 N8          1.1910   -4.5090   -0.4690 n         1 MOL     -0.282975
     80 C25         0.7390   -3.4550   -1.3940 c3        1 MOL     -0.004552
     81 C26        -0.0380   -2.2660   -0.8420 c         1 MOL      0.537466
     82 O14         0.0300   -1.8840    0.3340 o         1 MOL     -0.456332
     83 C27         1.9890   -3.0050   -2.2380 c3        1 MOL      0.032772
     84 C28         3.0570   -2.3910   -1.2780 c3        1 MOL     -0.176309
     85 O15         2.5350   -4.0750   -2.9860 oh        1 MOL     -0.628569
     86 H35         1.9760   -4.3080    0.1290 hn        1 MOL      0.197480
     87 H36         0.0960   -3.8690   -2.1670 h1        1 MOL      0.052845
     88 H37         1.7680   -2.1610   -2.8800 h1        1 MOL      0.087365
     89 H38         1.8770   -4.4460   -3.5820 ho        1 MOL      0.410527
     90 H39         2.4890   -1.6820   -0.6680 hc        1 MOL      0.096541
     91 H40         3.6440   -3.1730   -0.7810 hc        1 MOL      0.096541
     92 H41         3.6880   -1.7540   -1.8930 hc        1 MOL      0.096541
     93 N9         -0.6830   -1.5820   -1.7550 n         1 MOL     -0.444519
     94 C29        -1.2570   -0.2540   -1.4830 c3        1 MOL      0.110835
     95 C30        -2.6390   -0.3320   -0.8310 c         1 MOL      0.526117
     96 O16        -2.9350    0.3150    0.2160 o         1 MOL     -0.541992
     97 C31        -1.3550    0.6240   -2.8150 c3        1 MOL      0.024631
     98 C32         0.0540    0.8770   -3.4620 c3        1 MOL      0.025752
     99 C33        -1.9730    1.9750   -2.4540 c3        1 MOL     -0.363783
    100 C34         1.1810    1.2380   -2.4760 c3        1 MOL     -0.067389
    101 H42        -0.6430   -1.7930   -2.7540 hn        1 MOL      0.276191
    102 H43        -0.6590    0.2680   -0.7380 h1        1 MOL      0.039817
    103 H44        -1.9560    0.0850   -3.5460 hc        1 MOL      0.025894
    104 H45        -0.0040    1.7260   -4.1380 hc        1 MOL     -0.032175
    105 H46         0.4190   -0.0510   -3.9100 hc        1 MOL     -0.032175
    106 H47        -1.7050    2.3370   -1.4560 hc        1 MOL      0.116396
    107 H48        -1.6050    2.7820   -3.0950 hc        1 MOL      0.116396
    108 H49        -3.0550    1.9630   -2.5390 hc        1 MOL      0.116396
    109 H50         2.0490    1.5180   -3.0680 hc        1 MOL      0.025416
    110 H51         0.8180    2.0490   -1.8280 hc        1 MOL      0.025416
    111 H52         1.4180    0.3670   -1.8550 hc        1 MOL      0.025416
    112 N10        -3.4390   -1.2580   -1.3240 n         1 MOL     -0.451204
    113 C35        -4.7370   -1.6360   -0.6170 c3        1 MOL     -0.056872
    114 C36        -5.7730   -1.9360   -1.6790 c         1 MOL      0.684758
    115 O17        -5.4910   -2.6000   -2.6300 o         1 MOL     -0.508885
    116 C37        -4.5050   -2.8390    0.2890 c3        1 MOL      0.445746
    117 C38        -5.7340   -3.5590    0.8240 c3        1 MOL     -0.511304
    118 O18        -3.9080   -3.8090   -0.4600 oh        1 MOL     -0.654036
    119 H53        -3.0640   -1.8680   -2.0300 hn        1 MOL      0.257441
    120 H54        -5.1160   -0.9100    0.1020 h1        1 MOL      0.084880
    121 H55        -3.8030   -2.6280    1.0860 h1        1 MOL      0.027326
    122 H56        -3.7310   -4.5850    0.0690 ho        1 MOL      0.434505
    123 H57        -6.3660   -3.7400   -0.0480 hc        1 MOL      0.127550
    124 H58        -5.3820   -4.5440    1.1210 hc        1 MOL      0.127550
    125 H59        -6.2100   -2.9780    1.6070 hc        1 MOL      0.127550
    126 N11        -7.0670   -1.5510   -1.5250 n         1 MOL     -0.656966
    127 C39        -7.9650   -1.3840   -2.6700 c3        1 MOL     -0.042514
    128 C40        -8.7620   -0.0480   -2.6180 c         1 MOL      0.824592
    129 O19        -8.8780    0.5510   -3.6600 o         1 MOL     -0.593979
    130 C41        -8.8160   -2.6590   -2.7800 c3        1 MOL      0.232234
    131 C42        -9.6560   -2.7430   -4.0170 c3        1 MOL     -0.426303
    132 O20        -9.8300   -2.6830   -1.7490 oh        1 MOL     -0.627629
    133 H60        -7.2870   -1.2140   -0.5940 hn        1 MOL      0.317969
    134 H61        -7.3560   -1.2790   -3.5710 h1        1 MOL      0.115503
    135 H62        -8.1250   -3.4920   -2.6470 h1        1 MOL      0.094040
    136 H63       -10.5150   -3.3360   -1.9410 ho        1 MOL      0.393773
    137 H64       -10.1760   -3.7090   -4.0240 hc        1 MOL      0.112391
    138 H65       -10.2950   -1.8720   -4.0720 hc        1 MOL      0.112391
    139 H66        -9.0090   -2.7580   -4.8990 hc        1 MOL      0.112391
    140 N12        -9.0570    0.4430   -1.4040 n         1 MOL     -0.647173
    141 C43        -9.7550    1.7150   -1.1290 c3        1 MOL      0.080910
    142 C44        -9.3860    2.4570    0.1820 c         1 MOL      0.581693
    143 O21        -8.9310    1.7740    1.1520 o         1 MOL     -0.528467
    144 C45       -11.3080    1.5290   -1.2170 c3        1 MOL     -0.305068
    145 C46       -11.8930    0.5560   -0.1540 c3        1 MOL      0.082187
    146 C47       -13.2880    0.0160   -0.4400 c3        1 MOL      0.027899
    147 C48       -13.7310   -1.0430    0.5950 c3        1 MOL     -0.054928
    148 N13       -15.1270   -1.5520    0.3110 n4        1 MOL     -0.073291
    149 H67        -8.8130   -0.1920   -0.6600 hn        1 MOL      0.348957
    150 H68        -9.5090    2.4260   -1.9360 h1        1 MOL      0.088078
    151 H69       -11.5980    1.1690   -2.2100 hc        1 MOL      0.098027
    152 H70       -11.7750    2.4940   -1.0600 hc        1 MOL      0.098027
    153 H71       -11.9500    1.1500    0.7660 hc        1 MOL      0.024535
    154 H72       -11.2300   -0.2810    0.0470 hc        1 MOL      0.024535
    155 H73       -13.3470   -0.3990   -1.4460 hc        1 MOL      0.014003
    156 H74       -13.9910    0.8490   -0.3640 hc        1 MOL      0.014003
    157 H75       -13.7400   -0.5690    1.5790 hx        1 MOL      0.089790
    158 H76       -13.0400   -1.8740    0.4830 hx        1 MOL      0.089790
    159 H77       -15.2980   -1.7080   -0.6720 hn        1 MOL      0.196178
    160 H78       -15.3790   -2.3830    0.8280 hn        1 MOL      0.196178
    161 H79       -15.8500   -0.9130    0.6010 hn        1 MOL      0.196178
    162 N14        -9.6410    3.7530    0.2560 n         1 MOL     -0.476279
    163 C49        -9.1730    4.6270    1.3250 c3        1 MOL      0.161597
    164 C50        -7.6640    4.6770    1.3930 c         1 MOL      0.316858
    165 O22        -7.0970    4.2240    2.3980 o         1 MOL     -0.440244
    166 C51        -9.9330    5.9790    1.1920 c3        1 MOL     -0.066462
    167 C52        -9.3410    7.1750    1.9990 c3        1 MOL     -0.225975
    168 C53        -9.0690    6.7270    3.3940 c         1 MOL      0.688720
    169 O23        -7.8870    6.9260    3.7650 o         1 MOL     -0.628190
    170 O24        -9.9340    6.2490    4.0680 o         1 MOL     -0.628190
    171 H80        -9.9080    4.2400   -0.5950 hn        1 MOL      0.244076
    172 H81        -9.3910    4.2510    2.3310 h1        1 MOL      0.102313
    173 H82       -10.9760    5.8310    1.4500 hc        1 MOL      0.022385
    174 H83        -9.9130    6.3050    0.1580 hc        1 MOL      0.022385
    175 H84       -10.0850    7.9620    1.8740 hc        1 MOL      0.053872
    176 H85        -8.4590    7.4930    1.4340 hc        1 MOL      0.053872
    177 N15        -6.9120    5.0830    0.3570 n         1 MOL     -0.289079
    178 C54        -7.1630    5.4810   -1.0730 c3        1 MOL     -0.086679
    179 H86        -8.1860    5.8450   -1.1730 h1        1 MOL      0.061399
    180 H87        -6.4680    6.2700   -1.3590 h1        1 MOL      0.061399
    181 H88        -7.0210    4.6170   -1.7220 h1        1 MOL      0.061399
    182 H89        -5.9250    4.9090    0.4640 hn        1 MOL      0.260686
    183 Ca1         7.2160    4.5050    0.0180 Ca        1 MOL      1.785404
    184 O25         4.9760    5.9770   -0.0280 oh        1 MOL     -0.909295
    185 H90         4.6410    6.7930    0.3500 ho        1 MOL      0.446475
    186 H91         4.1970    5.4730   -0.2600 ho        1 MOL      0.446475
    187 O26         7.0550    5.6880    2.2500 oh        1 MOL     -0.909295
    188 H92         7.8830    5.7540    2.7230 ho        1 MOL      0.446475
    189 H93         6.4000    6.0190    2.8590 ho        1 MOL      0.446475
    190 O27         5.9260    3.2590   -1.9410 oh        1 MOL     -0.909295
    191 H94         5.1290    2.7300   -2.0230 ho        1 MOL      0.446475
    192 H95         6.2460    3.3570   -2.8400 ho        1 MOL      0.446475
@<TRIPOS>BOND
     1    1    2 1   
     2    1    4 1   
     3    1    5 1   
     4    1    6 1   
     5    2    3 2   
     6    2    7 1   
     7    7    8 1   
     8    7   15 1   
     9    8    9 1   
    10    8   11 1   
    11    8   16 1   
    12    9   10 2   
    13    9   19 1   
    14   11   12 1   
    15   11   17 1   
    16   11   18 1   
    17   12   13 1   
    18   12   14 1   
    19   19   20 1   
    20   19   28 1   
    21   20   21 1   
    22   20   23 1   
    23   20   29 1   
    24   21   22 2   
    25   21   41 1   
    26   23   24 1   
    27   23   30 1   
    28   23   31 1   
    29   24   25 1   
    30   24   32 1   
    31   24   33 1   
    32   25   26 1   
    33   25   34 1   
    34   25   35 1   
    35   26   27 1   
    36   26   36 1   
    37   26   37 1   
    38   27   38 1   
    39   27   39 1   
    40   27   40 1   
    41   41   42 1   
    42   41   49 1   
    43   42   43 1   
    44   42   45 1   
    45   42   50 1   
    46   43   44 2   
    47   43   53 1   
    48   45   46 1   
    49   45   51 1   
    50   45   52 1   
    51   46   47 1   
    52   46   48 1   
    53   53   54 1   
    54   53   57 1   
    55   54   55 1   
    56   54   58 1   
    57   54   59 1   
    58   55   56 2   
    59   55   60 1   
    60   60   61 1   
    61   60   68 1   
    62   61   62 1   
    63   61   64 1   
    64   61   69 1   
    65   62   63 2   
    66   62   72 1   
    67   64   65 1   
    68   64   70 1   
    69   64   71 1   
    70   65   66 1   
    71   65   67 1   
    72   72   73 1   
    73   72   76 1   
    74   73   74 1   
    75   73   77 1   
    76   73   78 1   
    77   74   75 2   
    78   74   79 1   
    79   79   80 1   
    80   79   86 1   
    81   80   81 1   
    82   80   83 1   
    83   80   87 1   
    84   81   82 2   
    85   81   93 1   
    86   83   84 1   
    87   83   85 1   
    88   83   88 1   
    89   84   90 1   
    90   84   91 1   
    91   84   92 1   
    92   85   89 1   
    93   93   94 1   
    94   93  101 1   
    95   94   95 1   
    96   94   97 1   
    97   94  102 1   
    98   95   96 2   
    99   95  112 1   
   100   97   98 1   
   101   97   99 1   
   102   97  103 1   
   103   98  100 1   
   104   98  104 1   
   105   98  105 1   
   106   99  106 1   
   107   99  107 1   
   108   99  108 1   
   109  100  109 1   
   110  100  110 1   
   111  100  111 1   
   112  112  113 1   
   113  112  119 1   
   114  113  114 1   
   115  113  116 1   
   116  113  120 1   
   117  114  115 2   
   118  114  126 1   
   119  116  117 1   
   120  116  118 1   
   121  116  121 1   
   122  117  123 1   
   123  117  124 1   
   124  117  125 1   
   125  118  122 1   
   126  126  127 1   
   127  126  133 1   
   128  127  128 1   
   129  127  130 1   
   130  127  134 1   
   131  128  129 2   
   132  128  140 1   
   133  130  131 1   
   134  130  132 1   
   135  130  135 1   
   136  131  137 1   
   137  131  138 1   
   138  131  139 1   
   139  132  136 1   
   140  140  141 1   
   141  140  149 1   
   142  141  142 1   
   143  141  144 1   
   144  141  150 1   
   145  142  143 2   
   146  142  162 1   
   147  144  145 1   
   148  144  151 1   
   149  144  152 1   
   150  145  146 1   
   151  145  153 1   
   152  145  154 1   
   153  146  147 1   
   154  146  155 1   
   155  146  156 1   
   156  147  148 1   
   157  147  157 1   
   158  147  158 1   
   159  148  159 1   
   160  148  160 1   
   161  148  161 1   
   162  162  163 1   
   163  162  171 1   
   164  163  164 1   
   165  163  166 1   
   166  163  172 1   
   167  164  165 2   
   168  164  177 1   
   169  166  167 1   
   170  166  173 1   
   171  166  174 1   
   172  167  168 1   
   173  167  175 1   
   174  167  176 1   
   175  168  169 1   
   176  168  170 1   
   177  177  178 1   
   178  177  182 1   
   179  178  179 1   
   180  178  180 1   
   181  178  181 1   
   182  184  185 1   
   183  184  186 1   
   184  187  188 1   
   185  187  189 1   
   186  190  191 1   
   187  190  192 1   
@<TRIPOS>SUBSTRUCTURE
     1 MOL         1 TEMP              0 ****  ****    0 ROOT
