@<TRIPOS>MOLECULE
MOL
  198   191     1     0     0
SMALL
resp


@<TRIPOS>ATOM
      1 C1         -1.6530    6.7840    3.2400 c3        1 MOL     -0.347808
      2 C2         -1.8500    5.3590    2.6610 c         1 MOL      0.558665
      3 O1         -2.1180    4.4040    3.4320 o         1 MOL     -0.553208
      4 H1         -2.5970    7.1420    3.6490 hc        1 MOL      0.093248
      5 H2         -0.9020    6.7550    4.0290 hc        1 MOL      0.093248
      6 H3         -1.3230    7.4550    2.4470 hc        1 MOL      0.093248
      7 N1         -1.7350    5.2960    1.3030 n         1 MOL     -0.420177
      8 C3         -1.9160    4.1350    0.5270 c3        1 MOL      0.312375
      9 C4         -0.7270    4.0670   -0.4470 c         1 MOL      0.644067
     10 O2         -0.7740    3.4520   -1.4530 o         1 MOL     -0.477033
     11 C5         -3.2760    4.0980   -0.3190 c3        1 MOL     -0.713634
     12 C6         -3.6180    5.3500   -1.1400 c         1 MOL      0.873388
     13 O3         -2.9340    6.3680   -1.2360 o         1 MOL     -0.741024
     14 O4         -4.7500    5.3800   -1.7610 o         1 MOL     -0.741024
     15 H4         -1.5100    6.1700    0.8560 hn        1 MOL      0.316270
     16 H5         -1.7960    3.2130    1.1030 h1        1 MOL      0.062726
     17 H6         -4.0590    4.1690    0.4340 hc        1 MOL      0.169396
     18 H7         -3.3310    3.2240   -0.9620 hc        1 MOL      0.169396
     19 N2          0.4760    4.6780   -0.0480 n         1 MOL     -0.821521
     20 C7          1.9130    4.3380   -0.5550 c3        1 MOL      0.371452
     21 C8          2.8630    3.8460    0.5460 c         1 MOL      0.453663
     22 O5          3.2130    4.5580    1.5130 o         1 MOL     -0.576078
     23 C9          2.5010    5.6060   -1.2340 c3        1 MOL     -0.331937
     24 C10         3.6660    5.2520   -2.1810 c3        1 MOL     -0.017641
     25 C11         4.0100    6.4680   -3.0550 c3        1 MOL     -0.071647
     26 C12         5.0890    6.1060   -4.0790 c3        1 MOL      0.134367
     27 N3          6.0120    7.2200   -4.5270 n4        1 MOL     -0.413129
     28 H8          0.4310    5.3390    0.7220 hn        1 MOL      0.293522
     29 H9          1.7890    3.5980   -1.3460 h1        1 MOL      0.051440
     30 H10         2.8120    6.4020   -0.5650 hc        1 MOL      0.119958
     31 H11         1.7600    6.1190   -1.8530 hc        1 MOL      0.119958
     32 H12         3.3790    4.4240   -2.8360 hc        1 MOL      0.034919
     33 H13         4.5250    4.8120   -1.6660 hc        1 MOL      0.034919
     34 H14         4.4210    7.3160   -2.5120 hc        1 MOL      0.050238
     35 H15         3.1020    6.8140   -3.5580 hc        1 MOL      0.050238
     36 H16         4.5860    5.6890   -4.9490 hx        1 MOL      0.067556
     37 H17         5.6450    5.2310   -3.7620 hx        1 MOL      0.067556
     38 H18         6.8300    7.3370   -3.9400 hn        1 MOL      0.314381
     39 H19         6.3470    7.0120   -5.4570 hn        1 MOL      0.314381
     40 H20         5.6050    8.1360   -4.6190 hn        1 MOL      0.314381
     41 N4          3.3370    2.6420    0.5330 n         1 MOL     -0.447430
     42 C13         3.0810    1.4950   -0.3800 c3        1 MOL     -0.011750
     43 C14         3.5650    1.5740   -1.9260 c         1 MOL      0.592274
     44 O6          2.6720    1.6820   -2.7370 o         1 MOL     -0.544627
     45 C15         1.6070    1.0990   -0.2930 c3        1 MOL      0.083561
     46 C16         1.0030    0.9950    1.0610 c         1 MOL      0.672604
     47 O7          1.7910    0.5650    1.9440 o         1 MOL     -0.766845
     48 O8         -0.2570    1.0070    1.2860 o         1 MOL     -0.766845
     49 H21         4.0520    2.5000    1.2380 hn        1 MOL      0.308503
     50 H22         3.6880    0.6620   -0.0200 h1        1 MOL      0.062234
     51 H23         1.4780    0.1160   -0.7470 hc        1 MOL      0.013140
     52 H24         1.1030    1.8320   -0.9180 hc        1 MOL      0.013140
     53 N5          4.8550    1.4600   -2.1820 n         1 MOL     -0.577154
     54 C17         5.9710    1.2190   -1.2400 c3        1 MOL      0.335154
     55 C18         7.3890    1.2980   -1.9060 c         1 MOL      0.265011
     56 O9          7.5350    1.2600   -3.1710 o         1 MOL     -0.526057
     57 H25         5.0530    1.2650   -3.1530 hn        1 MOL      0.296536
     58 H26         5.9090    0.2250   -0.8010 h1        1 MOL     -0.026989
     59 H27         5.8890    1.8640   -0.3550 h1        1 MOL     -0.026989
     60 N6          8.4740    1.1270   -1.1440 n         1 MOL     -0.170194
     61 C19         8.5740    1.1210    0.3710 c3        1 MOL     -0.238059
     62 C20         8.3230   -0.2570    1.0500 c         1 MOL      0.411124
     63 O10         8.3070   -0.3290    2.3200 o         1 MOL     -0.493111
     64 C21         9.9410    1.6810    0.8900 c3        1 MOL     -0.253899
     65 C22        11.2110    0.8150    0.5820 c         1 MOL      0.800102
     66 O11        11.1520   -0.1600   -0.2020 o         1 MOL     -0.703464
     67 O12        12.2850    1.1860    1.1510 o         1 MOL     -0.703464
     68 H28         9.3220    0.9660   -1.6550 hn        1 MOL      0.253864
     69 H29         7.8790    1.8580    0.7660 h1        1 MOL      0.149067
     70 H30         9.9150    1.7460    1.9800 hc        1 MOL      0.073331
     71 H31        10.0670    2.6510    0.4040 hc        1 MOL      0.073331
     72 N7          8.1280   -1.3450    0.2780 n         1 MOL     -0.152191
     73 C23         7.5580   -2.6410    0.6990 c3        1 MOL     -0.101390
     74 C24         6.3240   -3.1810   -0.0800 c         1 MOL      0.673899
     75 O13         6.0290   -2.7400   -1.1700 o         1 MOL     -0.567977
     76 H32         8.2070   -1.2600   -0.7240 hn        1 MOL      0.216926
     77 H33         7.2240   -2.4270    1.7110 h1        1 MOL      0.054665
     78 H34         8.2630   -3.4730    0.6420 h1        1 MOL      0.054665
     79 N8          5.5710   -4.0800    0.4700 n         1 MOL     -0.460928
     80 C25         4.5580   -4.8900   -0.2270 c3        1 MOL     -0.027768
     81 C26         3.1190   -4.2230   -0.2140 c         1 MOL      0.509857
     82 O14         2.7420   -3.3530    0.6240 o         1 MOL     -0.546656
     83 C27         4.5350   -6.2420    0.5190 c3        1 MOL      0.393419
     84 C28         3.9990   -6.2390    1.9380 c3        1 MOL     -0.359204
     85 O15         5.7710   -6.8740    0.5030 oh        1 MOL     -0.668110
     86 H35         5.6960   -4.2840    1.4550 hn        1 MOL      0.286532
     87 H36         4.8830   -4.9990   -1.2540 h1        1 MOL      0.136352
     88 H37         3.9090   -6.9390   -0.0250 h1        1 MOL     -0.007508
     89 H38         5.7300   -7.6810    1.0150 ho        1 MOL      0.425335
     90 H39         4.0990   -7.2550    2.3220 hc        1 MOL      0.090342
     91 H40         4.4760   -5.4230    2.4880 hc        1 MOL      0.090342
     92 H41         2.9580   -5.9160    1.8530 hc        1 MOL      0.090342
     93 N9          2.3080   -4.6130   -1.2770 n         1 MOL     -0.525736
     94 C29         1.0280   -3.9150   -1.5420 c3        1 MOL      0.057337
     95 C30        -0.0650   -5.0260   -1.4000 c         1 MOL      0.513797
     96 O16         0.1380   -6.1400   -1.8800 o         1 MOL     -0.537509
     97 C31         0.9650   -3.2680   -2.9490 c3        1 MOL      0.040801
     98 C32         2.1660   -2.3560   -3.2050 c3        1 MOL      0.275443
     99 C33        -0.3650   -2.5490   -3.0110 c3        1 MOL     -0.386967
    100 C34         2.1020   -1.6780   -4.5780 c3        1 MOL     -0.380713
    101 H42         2.6150   -5.3650   -1.8700 hn        1 MOL      0.297431
    102 H43         0.7130   -3.1500   -0.8350 h1        1 MOL      0.057972
    103 H44         1.0050   -4.0500   -3.7060 hc        1 MOL      0.016147
    104 H45         3.0840   -2.9610   -3.2030 hc        1 MOL     -0.019841
    105 H46         2.2400   -1.5050   -2.5390 hc        1 MOL     -0.019841
    106 H47        -0.5410   -2.0620   -3.9670 hc        1 MOL      0.086011
    107 H48        -1.1500   -3.2910   -2.8430 hc        1 MOL      0.086011
    108 H49        -0.4820   -1.7900   -2.2440 hc        1 MOL      0.086011
    109 H50         1.3190   -0.9210   -4.6020 hc        1 MOL      0.092151
    110 H51         3.0580   -1.1970   -4.7920 hc        1 MOL      0.092151
    111 H52         1.9430   -2.4510   -5.3230 hc        1 MOL      0.092151
    112 N10        -1.1520   -4.6960   -0.7020 n         1 MOL     -0.276994
    113 C35        -2.3070   -5.5260   -0.3910 c3        1 MOL     -0.029897
    114 C36        -3.6220   -5.0450   -1.1600 c         1 MOL      0.337309
    115 O17        -4.5700   -5.8370   -1.3380 o         1 MOL     -0.498991
    116 C37        -2.5830   -5.5900    1.1550 c3        1 MOL      0.228253
    117 C38        -2.9950   -4.3750    1.8670 c3        1 MOL     -0.129015
    118 O18        -1.3340   -6.0520    1.7210 oh        1 MOL     -0.625067
    119 H53        -1.1340   -3.7500   -0.3440 hn        1 MOL      0.283444
    120 H54        -2.1210   -6.5450   -0.7250 h1        1 MOL      0.102552
    121 H55        -3.3870   -6.3150    1.2170 h1        1 MOL      0.026504
    122 H56        -1.5710   -6.9170    2.0640 ho        1 MOL      0.392263
    123 H57        -2.0780   -3.7950    1.9590 hc        1 MOL      0.043411
    124 H58        -3.7130   -3.7750    1.2940 hc        1 MOL      0.043411
    125 H59        -3.4240   -4.6110    2.8460 hc        1 MOL      0.043411
    126 N11        -3.6830   -3.7870   -1.5730 n         1 MOL     -0.134105
    127 C39        -4.8130   -3.0710   -2.1640 c3        1 MOL     -0.003973
    128 C40        -6.0200   -2.9310   -1.3310 c         1 MOL      0.531860
    129 O19        -6.1770   -3.5610   -0.3090 o         1 MOL     -0.476580
    130 C41        -5.1300   -3.4770   -3.5960 c3        1 MOL      0.328925
    131 C42        -3.9000   -3.4830   -4.5090 c3        1 MOL     -0.464174
    132 O20        -6.0040   -2.5360   -4.2080 oh        1 MOL     -0.671404
    133 H60        -2.8640   -3.2440   -1.3490 hn        1 MOL      0.187225
    134 H61        -4.5020   -2.0350   -2.2180 h1        1 MOL      0.058756
    135 H62        -5.6420   -4.4310   -3.5050 h1        1 MOL      0.021923
    136 H63        -6.3950   -2.8740   -5.0140 ho        1 MOL      0.418285
    137 H64        -3.3020   -4.3420   -4.1930 hc        1 MOL      0.126306
    138 H65        -4.1530   -3.6490   -5.5530 hc        1 MOL      0.126306
    139 H66        -3.4100   -2.5220   -4.3660 hc        1 MOL      0.126306
    140 N12        -6.8410   -1.9160   -1.6890 n         1 MOL     -0.438258
    141 C43        -8.0570   -1.5300   -0.9510 c3        1 MOL     -0.104459
    142 C44        -7.8980   -0.7990    0.4350 c         1 MOL      0.521856
    143 O21        -8.8790   -0.8330    1.1770 o         1 MOL     -0.535231
    144 C45        -8.9850   -0.8310   -1.9310 c3        1 MOL     -0.013943
    145 C46        -8.5560    0.5400   -2.0630 c3        1 MOL      0.039061
    146 C47        -9.5480    1.3840   -2.9230 c3        1 MOL     -0.161323
    147 C48        -9.0630    2.8920   -2.9850 c3        1 MOL     -0.092810
    148 N13        -7.7540    2.9940   -3.7420 n4        1 MOL     -0.341656
    149 H67        -6.6070   -1.5450   -2.5950 hn        1 MOL      0.264451
    150 H68        -8.5190   -2.4760   -0.6940 h1        1 MOL      0.123257
    151 H69       -10.0020   -0.9440   -1.5500 hc        1 MOL      0.045813
    152 H70        -9.0630   -1.3880   -2.8730 hc        1 MOL      0.045813
    153 H71        -7.5730    0.6420   -2.5090 hc        1 MOL      0.041791
    154 H72        -8.5810    1.0330   -1.0960 hc        1 MOL      0.041791
    155 H73       -10.5250    1.3190   -2.4450 hc        1 MOL      0.069087
    156 H74        -9.5880    0.9930   -3.9360 hc        1 MOL      0.069087
    157 H75        -8.9790    3.2710   -1.9660 hx        1 MOL      0.152081
    158 H76        -9.8620    3.4400   -3.4870 hx        1 MOL      0.152081
    159 H77        -7.0390    2.4260   -3.3030 hn        1 MOL      0.307237
    160 H78        -7.8740    2.7560   -4.7180 hn        1 MOL      0.307237
    161 H79        -7.3320    3.9020   -3.7720 hn        1 MOL      0.307237
    162 N14        -6.7490   -0.0980    0.6520 n         1 MOL     -0.231976
    163 C49        -6.5480    0.6390    1.9130 c3        1 MOL     -0.464437
    164 C50        -7.2450    1.9580    1.9560 c         1 MOL      0.639563
    165 O22        -6.9150    2.7820    1.0940 o         1 MOL     -0.572891
    166 C51        -5.0970    0.7170    2.1860 c3        1 MOL      0.139476
    167 C52        -4.4820   -0.6600    2.5290 c3        1 MOL     -0.060133
    168 C53        -3.0760   -0.5110    3.0330 c         1 MOL      0.633229
    169 O23        -2.2270   -1.2250    2.4990 o         1 MOL     -0.752974
    170 O24        -2.7240    0.2710    3.9290 o         1 MOL     -0.752974
    171 H80        -6.0720   -0.0640   -0.0990 hn        1 MOL      0.222346
    172 H81        -6.8710    0.1010    2.8050 h1        1 MOL      0.159857
    173 H82        -4.9000    1.3770    3.0270 hc        1 MOL      0.045030
    174 H83        -4.6450    1.3270    1.4090 hc        1 MOL      0.045030
    175 H84        -4.4980   -1.3210    1.6550 hc        1 MOL      0.021377
    176 H85        -5.0710   -1.1060    3.3400 hc        1 MOL      0.021377
    177 N15        -8.0690    2.2090    2.9630 n         1 MOL     -0.305136
    178 C54        -8.8730    3.4360    3.0930 c3        1 MOL     -0.071256
    179 H86        -9.9150    3.1690    3.2700 h1        1 MOL      0.071058
    180 H87        -8.5020    4.0280    3.9290 h1        1 MOL      0.071058
    181 H88        -8.7990    4.0180    2.1740 h1        1 MOL      0.071058
    182 H89        -8.2410    1.4640    3.6200 hn        1 MOL      0.256129
    183 Ca1        -0.1790   -0.0760    3.7060 Ca        1 MOL      1.786279
    184 O25         0.9190   -2.3580    2.3620 oh        1 MOL     -0.812292
    185 H90         1.4800   -2.5630    1.6110 ho        1 MOL      0.402098
    186 H91         0.7670   -3.2010    2.7780 ho        1 MOL      0.402098
    187 O26         0.5630   -2.2280    5.1740 oh        1 MOL     -0.812292
    188 H92         0.6890   -3.0970    4.7800 ho        1 MOL      0.402098
    189 H93         0.9490   -2.3110    6.0490 ho        1 MOL      0.402098
    190 O27        -0.2250    2.6660    3.7010 oh        1 MOL     -0.812292
    191 H94        -0.8450    3.1370    3.1550 ho        1 MOL      0.402098
    192 H95         0.4090    3.3230    3.9700 ho        1 MOL      0.402098
    193 O28         2.6380   -0.0510    4.4700 oh        1 MOL     -0.812292
    194 H96         2.9250    0.1730    3.5830 ho        1 MOL      0.402098
    195 H97         3.4350   -0.3430    4.9160 ho        1 MOL      0.402098
    196 O29        -0.5990    0.4880    6.1950 oh        1 MOL     -0.812292
    197 H98        -1.4460    0.1090    6.4480 ho        1 MOL      0.402098
    198 H99        -0.4880    1.2280    6.7900 ho        1 MOL      0.402098
@<TRIPOS>BOND
     1    1    2 1   
     2    1    4 1   
     3    1    5 1   
     4    1    6 1   
     5    2    3 2   
     6    2    7 1   
     7    7    8 1   
     8    7   15 1   
     9    8    9 1   
    10    8   11 1   
    11    8   16 1   
    12    9   10 2   
    13    9   19 1   
    14   11   12 1   
    15   11   17 1   
    16   11   18 1   
    17   12   13 1   
    18   12   14 1   
    19   19   20 1   
    20   19   28 1   
    21   20   21 1   
    22   20   23 1   
    23   20   29 1   
    24   21   22 2   
    25   21   41 1   
    26   23   24 1   
    27   23   30 1   
    28   23   31 1   
    29   24   25 1   
    30   24   32 1   
    31   24   33 1   
    32   25   26 1   
    33   25   34 1   
    34   25   35 1   
    35   26   27 1   
    36   26   36 1   
    37   26   37 1   
    38   27   38 1   
    39   27   39 1   
    40   27   40 1   
    41   41   42 1   
    42   41   49 1   
    43   42   43 1   
    44   42   45 1   
    45   42   50 1   
    46   43   44 2   
    47   43   53 1   
    48   45   46 1   
    49   45   51 1   
    50   45   52 1   
    51   46   47 1   
    52   46   48 1   
    53   53   54 1   
    54   53   57 1   
    55   54   55 1   
    56   54   58 1   
    57   54   59 1   
    58   55   56 2   
    59   55   60 1   
    60   60   61 1   
    61   60   68 1   
    62   61   62 1   
    63   61   64 1   
    64   61   69 1   
    65   62   63 2   
    66   62   72 1   
    67   64   65 1   
    68   64   70 1   
    69   64   71 1   
    70   65   66 1   
    71   65   67 1   
    72   72   73 1   
    73   72   76 1   
    74   73   74 1   
    75   73   77 1   
    76   73   78 1   
    77   74   75 2   
    78   74   79 1   
    79   79   80 1   
    80   79   86 1   
    81   80   81 1   
    82   80   83 1   
    83   80   87 1   
    84   81   82 2   
    85   81   93 1   
    86   83   84 1   
    87   83   85 1   
    88   83   88 1   
    89   84   90 1   
    90   84   91 1   
    91   84   92 1   
    92   85   89 1   
    93   93   94 1   
    94   93  101 1   
    95   94   95 1   
    96   94   97 1   
    97   94  102 1   
    98   95   96 2   
    99   95  112 1   
   100   97   98 1   
   101   97   99 1   
   102   97  103 1   
   103   98  100 1   
   104   98  104 1   
   105   98  105 1   
   106   99  106 1   
   107   99  107 1   
   108   99  108 1   
   109  100  109 1   
   110  100  110 1   
   111  100  111 1   
   112  112  113 1   
   113  112  119 1   
   114  113  114 1   
   115  113  116 1   
   116  113  120 1   
   117  114  115 2   
   118  114  126 1   
   119  116  117 1   
   120  116  118 1   
   121  116  121 1   
   122  117  123 1   
   123  117  124 1   
   124  117  125 1   
   125  118  122 1   
   126  126  127 1   
   127  126  133 1   
   128  127  128 1   
   129  127  130 1   
   130  127  134 1   
   131  128  129 2   
   132  128  140 1   
   133  130  131 1   
   134  130  132 1   
   135  130  135 1   
   136  131  137 1   
   137  131  138 1   
   138  131  139 1   
   139  132  136 1   
   140  140  141 1   
   141  140  149 1   
   142  141  142 1   
   143  141  144 1   
   144  141  150 1   
   145  142  143 2   
   146  142  162 1   
   147  144  145 1   
   148  144  151 1   
   149  144  152 1   
   150  145  146 1   
   151  145  153 1   
   152  145  154 1   
   153  146  147 1   
   154  146  155 1   
   155  146  156 1   
   156  147  148 1   
   157  147  157 1   
   158  147  158 1   
   159  148  159 1   
   160  148  160 1   
   161  148  161 1   
   162  162  163 1   
   163  162  171 1   
   164  163  164 1   
   165  163  166 1   
   166  163  172 1   
   167  164  165 2   
   168  164  177 1   
   169  166  167 1   
   170  166  173 1   
   171  166  174 1   
   172  167  168 1   
   173  167  175 1   
   174  167  176 1   
   175  168  169 1   
   176  168  170 1   
   177  177  178 1   
   178  177  182 1   
   179  178  179 1   
   180  178  180 1   
   181  178  181 1   
   182  184  185 1   
   183  184  186 1   
   184  187  188 1   
   185  187  189 1   
   186  190  191 1   
   187  190  192 1   
   188  193  194 1   
   189  193  195 1   
   190  196  197 1   
   191  196  198 1   
@<TRIPOS>SUBSTRUCTURE
     1 MOL         1 TEMP              0 ****  ****    0 ROOT
