@<TRIPOS>MOLECULE
MOL
  187   181     1     0     0
SMALL
resp


@<TRIPOS>ATOM
      1 C1          3.5490   -2.8880    3.4690 c3        1 MOL     -0.577462
      2 C2          4.8520   -2.2960    2.8280 c         1 MOL      0.884704
      3 O1          4.8750   -1.1890    2.2640 o         1 MOL     -0.643598
      4 H1          3.7730   -3.2550    4.4710 hc        1 MOL      0.144813
      5 H2          2.7880   -2.1100    3.5300 hc        1 MOL      0.144813
      6 H3          3.1820   -3.7090    2.8550 hc        1 MOL      0.144813
      7 N1          5.9730   -3.0170    2.9830 n         1 MOL     -0.766911
      8 C3          7.2740   -2.4780    2.6790 c3        1 MOL      0.438103
      9 C4          7.6780   -2.7670    1.2350 c         1 MOL      0.420609
     10 O2          6.8990   -3.4410    0.4780 o         1 MOL     -0.555415
     11 C5          8.3320   -2.8760    3.6660 c3        1 MOL     -0.223031
     12 C6          9.4170   -1.7660    3.7990 c         1 MOL      0.639911
     13 O3         10.3680   -1.6720    2.9510 o         1 MOL     -0.679079
     14 O4          9.2740   -0.9110    4.7530 o         1 MOL     -0.679079
     15 H4          5.9380   -3.9600    3.3430 hn        1 MOL      0.331230
     16 H5          7.1410   -1.3910    2.7390 h1        1 MOL      0.027572
     17 H6          8.7200   -3.8630    3.4170 hc        1 MOL      0.007599
     18 H7          7.8260   -2.9030    4.6330 hc        1 MOL      0.007599
     19 N2          8.7940   -2.1430    0.7330 n         1 MOL     -0.654252
     20 C7          9.5100   -2.5210   -0.5910 c3        1 MOL      0.600291
     21 C8          9.6780   -1.3540   -1.6000 c         1 MOL      0.228270
     22 O5         10.3600   -1.4980   -2.5990 o         1 MOL     -0.466652
     23 C9         10.8570   -3.2880   -0.5480 c3        1 MOL     -0.324419
     24 H8          9.1870   -1.4770    1.3880 hn        1 MOL      0.311144
     25 H9          8.7710   -3.1750   -1.0500 h1        1 MOL     -0.064955
     26 H10        11.7330   -2.6770   -0.3190 hc        1 MOL      0.077146
     27 H11        10.8150   -4.0530    0.2330 hc        1 MOL      0.077146
     28 H12        11.0640   -3.8020   -1.4920 hc        1 MOL      0.077146
     29 N3          9.0170   -0.1840   -1.2750 n         1 MOL     -0.368372
     30 C10         8.8990    0.9690   -2.1880 c3        1 MOL      0.135395
     31 C11         7.4990    1.5730   -2.2190 c         1 MOL      0.525028
     32 O6          7.3130    2.7760   -2.5410 o         1 MOL     -0.534149
     33 C12         9.9580    2.0350   -1.8030 c3        1 MOL     -0.022850
     34 C13        11.3570    1.5610   -1.5810 c         1 MOL      0.787556
     35 O7         12.0890    1.6940   -2.5520 o         1 MOL     -0.706378
     36 O8         11.8230    1.3320   -0.4370 o         1 MOL     -0.706378
     37 H13         8.6560   -0.1200   -0.3320 hn        1 MOL      0.266119
     38 H14         9.2860    0.7230   -3.1760 h1        1 MOL      0.046472
     39 H15         9.6370    2.4420   -0.8350 hc        1 MOL     -0.041955
     40 H16         9.9360    2.8360   -2.5310 hc        1 MOL     -0.041955
     41 N4          6.5290    0.7290   -1.8430 n         1 MOL     -0.567439
     42 C14         5.2320    1.2170   -1.1720 c3        1 MOL     -0.011266
     43 C15         4.2260    1.6910   -2.1980 c         1 MOL      0.658000
     44 O9          4.2980    1.3870   -3.4050 o         1 MOL     -0.533159
     45 H17         6.7550   -0.2380   -1.6640 hn        1 MOL      0.301915
     46 H18         5.5440    2.0680   -0.5630 h1        1 MOL      0.088143
     47 H19         4.8430    0.3910   -0.5680 h1        1 MOL      0.088143
     48 N5          3.1900    2.3780   -1.7250 n         1 MOL     -0.545719
     49 C16         2.1590    3.1170   -2.4880 c3        1 MOL      0.007054
     50 C17         1.5330    4.2880   -1.6250 c         1 MOL      0.494451
     51 O10         1.3060    4.1680   -0.4540 o         1 MOL     -0.359621
     52 C18         1.0180    2.1220   -2.7630 c3        1 MOL     -0.392072
     53 C19        -0.1150    2.7730   -3.4450 c         1 MOL      0.660076
     54 N6         -1.2980    2.8590   -2.9180 n         1 MOL     -0.703881
     55 O11         0.0040    3.2170   -4.5700 o         1 MOL     -0.622189
     56 H20         3.2370    2.5650   -0.7380 hn        1 MOL      0.250034
     57 H21         2.6210    3.4750   -3.4020 h1        1 MOL      0.113959
     58 H22         0.6140    1.4760   -1.9860 hc        1 MOL      0.167628
     59 H23         1.4050    1.3750   -3.4590 hc        1 MOL      0.167628
     60 H24        -1.4960    2.5760   -1.9680 hn        1 MOL      0.335341
     61 H25        -1.9600    3.2840   -3.5460 hn        1 MOL      0.335341
     62 N7          1.1750    5.3810   -2.3630 n         1 MOL     -0.345141
     63 C20         0.6820    6.5870   -1.7680 c3        1 MOL     -0.264952
     64 C21        -0.5420    6.5610   -0.7510 c         1 MOL      0.624192
     65 O12        -1.6370    6.2120   -1.1050 o         1 MOL     -0.504103
     66 H26         1.1370    5.3100   -3.3720 hn        1 MOL      0.305161
     67 H27         0.3800    7.2150   -2.6090 h1        1 MOL      0.115627
     68 H28         1.5480    7.0530   -1.3210 h1        1 MOL      0.115627
     69 N8         -0.2190    6.8800    0.4880 n         1 MOL     -0.508152
     70 C22        -1.2790    7.0640    1.4870 c3        1 MOL     -0.256907
     71 C23        -1.8110    5.7630    2.1800 c         1 MOL      0.398894
     72 O13        -2.7570    5.8600    2.9460 o         1 MOL     -0.531826
     73 C24        -0.9910    8.1020    2.5950 c3        1 MOL      0.553446
     74 C25        -0.2460    7.5170    3.8160 c3        1 MOL     -0.208158
     75 O14        -0.1100    9.1440    2.2800 oh        1 MOL     -0.647702
     76 H29         0.7240    7.1330    0.7600 hn        1 MOL      0.316113
     77 H30        -2.1260    7.5390    0.9830 h1        1 MOL      0.156470
     78 H31        -1.9120    8.6100    2.9220 h1        1 MOL      0.005762
     79 H32         0.7130    8.7180    2.0210 ho        1 MOL      0.365049
     80 H33        -1.0200    7.1430    4.4910 hc        1 MOL      0.036207
     81 H34         0.3550    6.6660    3.4940 hc        1 MOL      0.036207
     82 H35         0.3380    8.2290    4.3930 hc        1 MOL      0.036207
     83 N9         -1.1540    4.6220    1.8710 n         1 MOL     -0.029809
     84 C26        -1.4600    3.1960    2.1800 c3        1 MOL      0.062464
     85 C27        -1.8510    2.2510    1.0210 c         1 MOL      0.488781
     86 O15        -1.7510    2.6460   -0.1130 o         1 MOL     -0.517048
     87 C28        -0.4390    2.5590    3.1540 c3        1 MOL      0.029376
     88 C29         1.0130    2.2050    2.6020 c3        1 MOL      0.123120
     89 C30        -0.1870    3.3290    4.4750 c3        1 MOL     -0.372546
     90 C31         1.1850    1.1170    1.5650 c3        1 MOL     -0.156399
     91 H36        -0.4380    4.8020    1.1790 hn        1 MOL      0.103835
     92 H37        -2.4480    3.2740    2.6340 h1        1 MOL      0.035467
     93 H38        -0.9000    1.5980    3.4050 hc        1 MOL      0.014780
     94 H39         1.5620    1.8200    3.4610 hc        1 MOL     -0.029128
     95 H40         1.4280    3.1080    2.1510 hc        1 MOL     -0.029128
     96 H41        -1.1530    3.7030    4.7960 hc        1 MOL      0.095678
     97 H42         0.1340    2.5990    5.2180 hc        1 MOL      0.095678
     98 H43         0.4950    4.1590    4.2990 hc        1 MOL      0.095678
     99 H44         0.8090    0.1610    1.9140 hc        1 MOL      0.049284
    100 H45         0.6380    1.4320    0.6810 hc        1 MOL      0.049284
    101 H46         2.2680    1.0610    1.4150 hc        1 MOL      0.049284
    102 N10        -2.2300    1.0600    1.3010 n         1 MOL     -0.493396
    103 C32        -2.3930   -0.0770    0.3780 c3        1 MOL      0.290635
    104 C33        -3.8250   -0.1940   -0.1940 c         1 MOL      0.424433
    105 O16        -4.2880   -1.3100   -0.5460 o         1 MOL     -0.473696
    106 C34        -1.9630   -1.3810    1.1530 c3        1 MOL     -0.282298
    107 C35        -1.6010   -2.5830    0.2980 c         1 MOL      0.841263
    108 O17        -1.2610   -2.4220   -0.8730 o         1 MOL     -0.775406
    109 O18        -1.5820   -3.7070    0.8250 o         1 MOL     -0.775406
    110 H47        -2.3380    0.8210    2.2810 hn        1 MOL      0.274543
    111 H48        -1.7940    0.1190   -0.5100 h1        1 MOL      0.023536
    112 H49        -2.7450   -1.6740    1.8540 hc        1 MOL      0.052059
    113 H50        -1.0840   -1.0990    1.7250 hc        1 MOL      0.052059
    114 N11        -4.5670    0.9050   -0.2890 n         1 MOL     -0.508392
    115 C36        -5.9330    1.0130   -0.8780 c3        1 MOL      0.428103
    116 C37        -6.9940    0.2470   -0.0650 c         1 MOL      0.277764
    117 O19        -7.0050    0.4530    1.1790 o         1 MOL     -0.558642
    118 C38        -6.4120    2.4400   -1.0860 c3        1 MOL     -0.356667
    119 C39        -7.7670    2.7230   -1.5800 ca        1 MOL      0.156408
    120 C40        -8.0180    2.7110   -2.9800 ca        1 MOL     -0.185804
    121 C41        -8.7730    2.9110   -0.6030 ca        1 MOL     -0.185804
    122 C42        -9.2870    2.8680   -3.4460 ca        1 MOL     -0.092659
    123 C43       -10.0450    3.1650   -1.1210 ca        1 MOL     -0.092659
    124 C44       -10.3410    3.1320   -2.5500 ca        1 MOL     -0.157266
    125 H51        -4.2020    1.7460    0.1200 hn        1 MOL      0.261846
    126 H52        -5.8390    0.5470   -1.8670 h1        1 MOL     -0.018148
    127 H53        -5.7990    2.8060   -1.9010 hc        1 MOL      0.115984
    128 H54        -6.2600    3.0670   -0.2040 hc        1 MOL      0.115984
    129 H55        -7.2510    2.4340   -3.6900 ha        1 MOL      0.136572
    130 H56        -8.5610    2.8130    0.4520 ha        1 MOL      0.136572
    131 H57        -9.5000    2.9030   -4.5050 ha        1 MOL      0.100766
    132 H58       -10.9120    3.2210   -0.4780 ha        1 MOL      0.100766
    133 H59       -11.3590    3.3180   -2.8400 ha        1 MOL      0.112660
    134 N12        -7.9030   -0.5770   -0.5810 n         1 MOL      0.031685
    135 C45        -8.9140   -1.3080    0.2130 c3        1 MOL     -0.034238
    136 C46        -8.3400   -2.3680    1.1760 c         1 MOL      0.413891
    137 O20        -9.1080   -2.8270    1.9880 o         1 MOL     -0.495113
    138 C47        -9.8110   -1.9600   -0.8260 c3        1 MOL     -0.186341
    139 C48        -8.8840   -2.2070   -2.0170 c3        1 MOL      0.117611
    140 C49        -7.8120   -1.0920   -1.9480 c3        1 MOL     -0.098636
    141 H60        -9.5260   -0.6460    0.8280 h1        1 MOL      0.102366
    142 H61       -10.2090   -2.9170   -0.4970 hc        1 MOL      0.069038
    143 H62       -10.6340   -1.2760   -1.0420 hc        1 MOL      0.069038
    144 H63        -8.4660   -3.2180   -2.0060 hc        1 MOL     -0.003404
    145 H64        -9.4080   -2.1380   -2.9640 hc        1 MOL     -0.003404
    146 H65        -6.8080   -1.4110   -2.2170 h1        1 MOL      0.024742
    147 H66        -8.2220   -0.3020   -2.5740 h1        1 MOL      0.024742
    148 N13        -7.0040   -2.7280    1.0780 n         1 MOL     -0.305000
    149 C50        -6.3550   -3.7120    1.9180 c3        1 MOL      0.012604
    150 C51        -5.8740   -3.0870    3.2350 c         1 MOL      0.425323
    151 O21        -5.9830   -3.7280    4.2920 o         1 MOL     -0.541129
    152 C52        -5.1910   -4.3540    1.1270 c3        1 MOL      0.270545
    153 C53        -5.5980   -5.0400   -0.1240 c3        1 MOL     -0.329123
    154 C54        -4.3390   -5.8360   -0.6050 c         1 MOL      0.757196
    155 O22        -4.2010   -7.0550   -0.2900 o         1 MOL     -0.721417
    156 O23        -3.4220   -5.2560   -1.2640 o         1 MOL     -0.721417
    157 H67        -6.4300   -2.3780    0.3260 hn        1 MOL      0.287558
    158 H68        -7.0500   -4.4790    2.2660 h1        1 MOL      0.069369
    159 H69        -4.8210   -5.0900    1.8410 hc        1 MOL     -0.059956
    160 H70        -4.4960   -3.5670    0.8430 hc        1 MOL     -0.059956
    161 H71        -5.8630   -4.3110   -0.8960 hc        1 MOL      0.055862
    162 H72        -6.4350   -5.6770    0.1560 hc        1 MOL      0.055862
    163 N14        -5.4430   -1.8060    3.2140 n         1 MOL     -0.128723
    164 C55        -5.1540   -1.0180    4.4150 c3        1 MOL     -0.294644
    165 H73        -4.4800   -1.5780    5.0630 h1        1 MOL      0.113527
    166 H74        -4.6830   -0.0780    4.1280 h1        1 MOL      0.113527
    167 H75        -6.0820   -0.8120    4.9480 h1        1 MOL      0.113527
    168 H76        -5.3380   -1.4050    2.2930 hn        1 MOL      0.188224
    169 Ca1        -0.9220   -5.0200   -1.2430 Ca        1 MOL      1.722086
    170 O24         1.4870   -3.6770   -0.8780 oh        1 MOL     -0.803091
    171 H77         2.3250   -4.1420   -0.8840 ho        1 MOL      0.388449
    172 H78         1.7280   -2.7540   -0.8950 ho        1 MOL      0.388449
    173 O25         1.2040   -6.0040    0.3880 oh        1 MOL     -0.803091
    174 H79         2.0170   -5.9000    0.8730 ho        1 MOL      0.388449
    175 H80         0.9060   -6.8880    0.6060 ho        1 MOL      0.388449
    176 O26        -1.5300   -7.5920   -0.6170 oh        1 MOL     -0.803091
    177 H81        -2.4530   -7.7630   -0.4880 ho        1 MOL      0.388449
    178 H82        -1.0820   -8.3190   -0.1860 ho        1 MOL      0.388449
    179 O27        -0.8180   -3.6860   -3.4740 oh        1 MOL     -0.803091
    180 H83        -0.5800   -2.7570   -3.4690 ho        1 MOL      0.388449
    181 H84        -0.9360   -3.8890   -4.3970 ho        1 MOL      0.388449
    182 O28         0.9700   -6.7180   -2.3960 oh        1 MOL     -0.803091
    183 H85         1.4780   -7.4290   -1.9930 ho        1 MOL      0.388449
    184 H86         1.2920   -6.6840   -3.2970 ho        1 MOL      0.388449
    185 O29        -1.5090   -6.2660   -3.6690 oh        1 MOL     -0.803091
    186 H87        -0.9120   -6.8840   -4.0840 ho        1 MOL      0.388449
    187 H88        -1.9680   -5.8440   -4.3990 ho        1 MOL      0.388449
@<TRIPOS>BOND
     1    1    2 1   
     2    1    4 1   
     3    1    5 1   
     4    1    6 1   
     5    2    3 2   
     6    2    7 1   
     7    7    8 1   
     8    7   15 1   
     9    8    9 1   
    10    8   11 1   
    11    8   16 1   
    12    9   10 2   
    13    9   19 1   
    14   11   12 1   
    15   11   17 1   
    16   11   18 1   
    17   12   13 1   
    18   12   14 1   
    19   19   20 1   
    20   19   24 1   
    21   20   21 1   
    22   20   23 1   
    23   20   25 1   
    24   21   22 2   
    25   21   29 1   
    26   23   26 1   
    27   23   27 1   
    28   23   28 1   
    29   29   30 1   
    30   29   37 1   
    31   30   31 1   
    32   30   33 1   
    33   30   38 1   
    34   31   32 2   
    35   31   41 1   
    36   33   34 1   
    37   33   39 1   
    38   33   40 1   
    39   34   35 1   
    40   34   36 1   
    41   41   42 1   
    42   41   45 1   
    43   42   43 1   
    44   42   46 1   
    45   42   47 1   
    46   43   44 2   
    47   43   48 1   
    48   48   49 1   
    49   48   56 1   
    50   49   50 1   
    51   49   52 1   
    52   49   57 1   
    53   50   51 2   
    54   50   62 1   
    55   52   53 1   
    56   52   58 1   
    57   52   59 1   
    58   53   54 1   
    59   53   55 2   
    60   54   60 1   
    61   54   61 1   
    62   62   63 1   
    63   62   66 1   
    64   63   64 1   
    65   63   67 1   
    66   63   68 1   
    67   64   65 2   
    68   64   69 1   
    69   69   70 1   
    70   69   76 1   
    71   70   71 1   
    72   70   73 1   
    73   70   77 1   
    74   71   72 2   
    75   71   83 1   
    76   73   74 1   
    77   73   75 1   
    78   73   78 1   
    79   74   80 1   
    80   74   81 1   
    81   74   82 1   
    82   75   79 1   
    83   83   84 1   
    84   83   91 1   
    85   84   85 1   
    86   84   87 1   
    87   84   92 1   
    88   85   86 2   
    89   85  102 1   
    90   87   88 1   
    91   87   89 1   
    92   87   93 1   
    93   88   90 1   
    94   88   94 1   
    95   88   95 1   
    96   89   96 1   
    97   89   97 1   
    98   89   98 1   
    99   90   99 1   
   100   90  100 1   
   101   90  101 1   
   102  102  103 1   
   103  102  110 1   
   104  103  104 1   
   105  103  106 1   
   106  103  111 1   
   107  104  105 2   
   108  104  114 1   
   109  106  107 1   
   110  106  112 1   
   111  106  113 1   
   112  107  108 1   
   113  107  109 1   
   114  114  115 1   
   115  114  125 1   
   116  115  116 1   
   117  115  118 1   
   118  115  126 1   
   119  116  117 2   
   120  116  134 1   
   121  118  119 1   
   122  118  127 1   
   123  118  128 1   
   124  119  120 ar  
   125  119  121 ar  
   126  120  122 ar  
   127  120  129 1   
   128  121  123 ar  
   129  121  130 1   
   130  122  124 ar  
   131  122  131 1   
   132  123  124 ar  
   133  123  132 1   
   134  124  133 1   
   135  134  135 1   
   136  134  140 1   
   137  135  136 1   
   138  135  138 1   
   139  135  141 1   
   140  136  137 2   
   141  136  148 1   
   142  138  139 1   
   143  138  142 1   
   144  138  143 1   
   145  139  140 1   
   146  139  144 1   
   147  139  145 1   
   148  140  146 1   
   149  140  147 1   
   150  148  149 1   
   151  148  157 1   
   152  149  150 1   
   153  149  152 1   
   154  149  158 1   
   155  150  151 2   
   156  150  163 1   
   157  152  153 1   
   158  152  159 1   
   159  152  160 1   
   160  153  154 1   
   161  153  161 1   
   162  153  162 1   
   163  154  155 1   
   164  154  156 1   
   165  163  164 1   
   166  163  168 1   
   167  164  165 1   
   168  164  166 1   
   169  164  167 1   
   170  170  171 1   
   171  170  172 1   
   172  173  174 1   
   173  173  175 1   
   174  176  177 1   
   175  176  178 1   
   176  179  180 1   
   177  179  181 1   
   178  182  183 1   
   179  182  184 1   
   180  185  186 1   
   181  185  187 1   
@<TRIPOS>SUBSTRUCTURE
     1 MOL         1 TEMP              0 ****  ****    0 ROOT
