@<TRIPOS>MOLECULE
MOL
  192   187     1     0     0
SMALL
resp


@<TRIPOS>ATOM
      1 C1          5.0970    3.5730   -3.6490 c3        1 MOL     -0.354123
      2 C2          5.7780    2.7800   -2.4940 c         1 MOL      0.795228
      3 O1          5.2230    2.7670   -1.4190 o         1 MOL     -0.641119
      4 H1          4.9020    2.9010   -4.4850 hc        1 MOL      0.081661
      5 H2          4.1560    3.9950   -3.2950 hc        1 MOL      0.081661
      6 H3          5.7560    4.3770   -3.9770 hc        1 MOL      0.081661
      7 N1          6.9940    2.2970   -2.6880 n         1 MOL     -0.650423
      8 C3          7.6010    1.1150   -1.9660 c3        1 MOL      0.231155
      9 C4          6.5060    0.0520   -1.7000 c         1 MOL      0.355859
     10 O2          6.0330   -0.0090   -0.5810 o         1 MOL     -0.544924
     11 C5          8.4190    1.5670   -0.7380 c3        1 MOL     -0.268377
     12 C6          7.9900    2.8510   -0.0410 c         1 MOL      0.886207
     13 O3          7.2040    2.8350    0.9370 o         1 MOL     -0.770053
     14 O4          8.5830    3.9110   -0.2740 o         1 MOL     -0.770053
     15 H4          7.4410    2.4170   -3.5870 hn        1 MOL      0.308668
     16 H5          8.2730    0.7300   -2.7340 h1        1 MOL      0.037191
     17 H6          9.3960    1.8040   -1.1660 hc        1 MOL      0.060337
     18 H7          8.5270    0.8460    0.0710 hc        1 MOL      0.060337
     19 N2          5.9990   -0.6030   -2.7040 n         1 MOL     -0.254769
     20 C7          4.9420   -1.6300   -2.7410 c3        1 MOL      0.054010
     21 C8          5.3030   -2.8590   -1.9760 c         1 MOL      0.494249
     22 O5          5.4030   -3.9320   -2.6060 o         1 MOL     -0.564510
     23 C9          3.5130   -1.0300   -2.4680 c3        1 MOL      0.019522
     24 C10         2.3930   -2.0400   -2.6330 c3        1 MOL     -0.076852
     25 C11         3.1620    0.1730   -3.3180 c3        1 MOL      0.000627
     26 C12         2.3300   -2.8160   -4.0160 c3        1 MOL     -0.393107
     27 H8          6.5060   -0.3830   -3.5540 hn        1 MOL      0.202181
     28 H9          4.9890   -1.9970   -3.7690 h1        1 MOL      0.049497
     29 H10         3.4570   -0.6410   -1.4590 hc        1 MOL      0.005832
     30 H11         1.4960   -1.4250   -2.5100 hc        1 MOL      0.158774
     31 H12         2.4590   -2.7500   -1.8100 hc        1 MOL      0.158774
     32 H13         2.1220    0.4660   -3.1610 hc        1 MOL     -0.025714
     33 H14         3.8360    1.0200   -3.1590 hc        1 MOL     -0.025714
     34 H15         3.2190   -0.0710   -4.3740 hc        1 MOL     -0.025714
     35 H16         3.2430   -3.3650   -4.2430 hc        1 MOL      0.091321
     36 H17         1.5050   -3.5270   -4.0030 hc        1 MOL      0.091321
     37 H18         2.0260   -2.0790   -4.7560 hc        1 MOL      0.091321
     38 N3          5.5710   -2.7770   -0.6460 n         1 MOL     -0.046129
     39 C13         6.1900   -3.7990    0.1010 c3        1 MOL      0.110504
     40 C14         5.4090   -4.9770    0.6260 c         1 MOL      0.463330
     41 O6          5.9940   -6.0880    0.7440 o         1 MOL     -0.586691
     42 C15         6.8800   -3.2220    1.3280 c3        1 MOL     -0.270432
     43 C16         8.0990   -2.3010    0.9520 c         1 MOL      0.725531
     44 O7          8.5590   -1.4850    1.7630 o         1 MOL     -0.695005
     45 O8          8.6220   -2.4210   -0.2110 o         1 MOL     -0.695005
     46 H19         5.6140   -1.8300   -0.2880 hn        1 MOL     -0.144361
     47 H20         6.9230   -4.2870   -0.5330 h1        1 MOL      0.041852
     48 H21         7.3680   -4.0280    1.8670 hc        1 MOL      0.075238
     49 H22         6.1910   -2.6370    1.9360 hc        1 MOL      0.075238
     50 N4          4.0860   -4.9930    0.9260 n         1 MOL     -0.441319
     51 C17         3.2250   -3.8230    0.8660 c3        1 MOL      0.128389
     52 C18         1.9830   -4.0970    1.6780 c         1 MOL      0.470677
     53 O9          1.3600   -5.0820    1.3460 o         1 MOL     -0.567615
     54 H23         3.6940   -5.8880    1.1800 hn        1 MOL      0.288358
     55 H24         2.9860   -3.6400   -0.1870 h1        1 MOL     -0.005050
     56 H25         3.8220   -2.9790    1.2190 h1        1 MOL     -0.005050
     57 N5          1.5430   -3.3310    2.6540 n         1 MOL     -0.398019
     58 C19         1.9440   -2.0050    3.0450 c3        1 MOL      0.338839
     59 C20         2.1750   -1.0130    1.8790 c         1 MOL     -0.134913
     60 O10         3.3060   -0.6380    1.6350 o         1 MOL     -0.049439
     61 C21         3.1920   -2.1590    3.9510 c3        1 MOL     -0.324702
     62 C22         3.5180   -0.9080    4.6940 c         1 MOL      0.770423
     63 O11         2.6030   -0.1000    5.0810 o         1 MOL     -0.690165
     64 O12         4.7290   -0.7020    4.8710 o         1 MOL     -0.690165
     65 H26         0.7920   -3.8010    3.1370 hn        1 MOL      0.267540
     66 H27         1.2000   -1.5430    3.6860 h1        1 MOL     -0.005964
     67 H28         4.0560   -2.5160    3.3950 hc        1 MOL      0.052327
     68 H29         2.9020   -2.9010    4.6940 hc        1 MOL      0.052327
     69 N6          1.1100   -0.6610    1.1300 n         1 MOL     -0.038322
     70 C23        -0.2850   -1.0550    1.2050 c3        1 MOL     -0.158719
     71 C24        -0.5450   -2.3430    0.3950 c         1 MOL      0.376462
     72 O13         0.1910   -2.7240   -0.5040 o         1 MOL     -0.483700
     73 H30         1.4310   -0.1690    0.3110 hn        1 MOL      0.051836
     74 H31        -0.8470   -0.2070    0.8250 h1        1 MOL      0.103207
     75 H32        -0.6880   -1.2030    2.2010 h1        1 MOL      0.103207
     76 N7         -1.6060   -2.9950    0.7770 n         1 MOL     -0.351938
     77 C25        -2.1600   -4.1690    0.1120 c3        1 MOL      0.005433
     78 C26        -2.6630   -3.9450   -1.3510 c         1 MOL      0.388133
     79 O14        -2.9480   -4.9190   -1.9990 o         1 MOL     -0.530228
     80 C27        -3.2200   -4.7940    0.9700 c3        1 MOL     -0.204432
     81 C28        -4.5070   -3.9160    1.0850 c3        1 MOL     -0.109265
     82 C29        -5.1660   -3.9560    2.4310 c         1 MOL      0.616544
     83 N8         -6.4840   -4.0090    2.3540 n         1 MOL     -0.794119
     84 O15        -4.6190   -3.8600    3.5650 o         1 MOL     -0.564563
     85 H33        -2.0440   -2.6900    1.6360 hn        1 MOL      0.250683
     86 H34        -1.3760   -4.9170    0.0190 h1        1 MOL      0.149382
     87 H35        -2.7920   -4.9200    1.9610 hc        1 MOL      0.092838
     88 H36        -3.5490   -5.7700    0.6130 hc        1 MOL      0.092838
     89 H37        -5.2060   -4.2720    0.3240 hc        1 MOL      0.079345
     90 H38        -4.2090   -2.8770    0.9120 hc        1 MOL      0.079345
     91 H39        -6.9220   -4.0580    1.4490 hn        1 MOL      0.365697
     92 H40        -6.9970   -4.0050    3.2270 hn        1 MOL      0.365697
     93 N9         -2.8760   -2.7230   -1.8130 n         1 MOL     -0.076988
     94 C30        -3.4640   -2.3980   -3.2110 c3        1 MOL     -0.183460
     95 C31        -4.8760   -1.9120   -3.1630 c         1 MOL      0.507038
     96 O16        -5.4180   -1.5260   -4.1750 o         1 MOL     -0.527451
     97 C32        -2.5690   -1.3790   -3.9260 c3        1 MOL      0.126922
     98 C33        -1.3290   -2.0940   -4.4770 c3        1 MOL     -0.107736
     99 C34        -2.2290   -0.1530   -3.0470 c3        1 MOL     -0.107736
    100 H41        -2.6260   -1.9670   -1.1940 hn        1 MOL      0.170733
    101 H42        -3.3750   -3.3110   -3.8080 h1        1 MOL      0.138900
    102 H43        -3.0630   -1.0680   -4.8460 hc        1 MOL      0.006153
    103 H44        -1.6170   -2.9800   -5.0590 hc        1 MOL      0.024604
    104 H45        -0.7720   -1.5030   -5.2080 hc        1 MOL      0.024604
    105 H46        -0.6120   -2.3610   -3.6960 hc        1 MOL      0.024604
    106 H47        -1.4320   -0.4720   -2.3670 hc        1 MOL      0.024604
    107 H48        -1.6970    0.5840   -3.6580 hc        1 MOL      0.024604
    108 H49        -3.0390    0.2800   -2.4560 hc        1 MOL      0.024604
    109 N10        -5.5080   -1.8430   -1.9960 n         1 MOL     -0.365055
    110 C35        -6.8930   -1.2740   -1.9730 c3        1 MOL      0.093948
    111 C36        -6.9860    0.1570   -1.6350 c         1 MOL      0.590991
    112 O17        -7.9630    0.7650   -2.0450 o         1 MOL     -0.547883
    113 C37        -7.6160   -1.9760   -0.8440 c3        1 MOL     -0.282556
    114 C38        -8.0130   -3.4480   -1.0190 c         1 MOL      0.655606
    115 N11        -8.2880   -3.9360   -2.1900 n         1 MOL     -0.744854
    116 O18        -7.8750   -4.2950   -0.1670 o         1 MOL     -0.571697
    117 H50        -4.9590   -1.9750   -1.1600 hn        1 MOL      0.139817
    118 H51        -7.3650   -1.3930   -2.9430 h1        1 MOL      0.064726
    119 H52        -8.5570   -1.4710   -0.6170 hc        1 MOL      0.084500
    120 H53        -7.0180   -1.9060    0.0700 hc        1 MOL      0.084500
    121 H54        -8.3980   -3.3210   -2.9760 hn        1 MOL      0.364657
    122 H55        -8.5400   -4.9130   -2.2540 hn        1 MOL      0.364657
    123 N12        -5.9610    0.6710   -0.8380 n         1 MOL     -0.386155
    124 C39        -5.9640    2.0290   -0.2470 c3        1 MOL     -0.119608
    125 C40        -4.5770    2.7220   -0.3540 c         1 MOL      0.544383
    126 O19        -3.4960    2.0980   -0.5820 o         1 MOL     -0.447698
    127 C41        -6.3820    1.9840    1.2320 c3        1 MOL     -0.259004
    128 C42        -7.5300    1.0870    1.4820 ca        1 MOL      0.023079
    129 C43        -8.8120    1.4330    1.0600 ca        1 MOL     -0.097474
    130 C44        -7.3720   -0.0980    2.2010 ca        1 MOL     -0.097474
    131 C45        -9.9530    0.7080    1.3300 ca        1 MOL     -0.283351
    132 C46        -8.4680   -0.9160    2.4530 ca        1 MOL     -0.283351
    133 C47        -9.7180   -0.5020    2.0020 ca        1 MOL      0.392679
    134 O20       -10.8140   -1.1950    2.4240 oh        1 MOL     -0.560536
    135 H56        -5.3400    0.0000   -0.4130 hn        1 MOL      0.304908
    136 H57        -6.5130    2.6760   -0.9310 h1        1 MOL      0.133112
    137 H58        -6.6470    2.9930    1.5590 hc        1 MOL      0.141247
    138 H59        -5.5440    1.6930    1.8750 hc        1 MOL      0.141247
    139 H60        -8.9370    2.3200    0.4600 ha        1 MOL      0.119414
    140 H61        -6.4380   -0.2390    2.7220 ha        1 MOL      0.119414
    141 H62       -10.9320    1.0070    0.9860 ha        1 MOL      0.142466
    142 H63        -8.4590   -1.8180    3.0560 ha        1 MOL      0.142466
    143 H64       -11.6650   -0.8070    2.2440 ho        1 MOL      0.384914
    144 N13        -4.6120    4.0600   -0.0970 n         1 MOL     -0.714687
    145 C48        -3.6440    4.9300    0.5490 c3        1 MOL      0.503832
    146 C49        -2.2760    5.1670   -0.1540 c         1 MOL      0.322290
    147 O21        -1.7710    6.2040    0.0120 o         1 MOL     -0.529197
    148 C50        -3.5070    4.5780    2.0560 c3        1 MOL     -0.268447
    149 C51        -2.7430    5.7880    2.8270 c3        1 MOL     -0.315091
    150 C52        -2.9240    5.8210    4.3580 c         1 MOL      0.772640
    151 O22        -2.8290    6.8470    5.0120 o         1 MOL     -0.731499
    152 O23        -3.1580    4.7300    4.9850 o         1 MOL     -0.731499
    153 H65        -5.5110    4.5010   -0.1620 hn        1 MOL      0.324208
    154 H66        -4.0440    5.9460    0.5120 h1        1 MOL     -0.037053
    155 H67        -3.0480    3.5870    2.1130 hc        1 MOL      0.077007
    156 H68        -4.5050    4.4480    2.4680 hc        1 MOL      0.077007
    157 H69        -3.2050    6.7090    2.4660 hc        1 MOL      0.086834
    158 H70        -1.7420    5.8730    2.4190 hc        1 MOL      0.086834
    159 N14        -1.7990    4.2130   -0.8870 n         1 MOL     -0.141766
    160 C53        -0.6140    4.3780   -1.7760 c3        1 MOL     -0.225907
    161 C54        -0.9390    5.1680   -3.0620 c         1 MOL      0.477387
    162 O24        -0.0560    5.4220   -3.9160 o         1 MOL     -0.528046
    163 C55        -0.1200    2.9130   -1.9560 c3        1 MOL      0.012257
    164 C56         0.0870    2.0120   -0.7310 c3        1 MOL      0.426281
    165 C57         1.3290    2.5190    0.0690 c         1 MOL      0.559688
    166 O25         1.1330    3.3760    0.9470 o         1 MOL     -0.633181
    167 O26         2.4390    1.9600   -0.1230 o         1 MOL     -0.633181
    168 H71        -2.3740    3.3990   -1.0900 hn        1 MOL      0.126011
    169 H72         0.2060    4.9600   -1.3590 h1        1 MOL      0.196889
    170 H73         0.8990    2.9720   -2.3430 hc        1 MOL     -0.000747
    171 H74        -0.6970    2.3690   -2.7080 hc        1 MOL     -0.000747
    172 H75         0.2200    0.9890   -1.0780 hc        1 MOL     -0.135070
    173 H76        -0.8330    2.0390   -0.1500 hc        1 MOL     -0.135070
    174 N15        -2.2390    5.5170   -3.2550 n         1 MOL     -0.238408
    175 C58        -2.7140    6.2450   -4.5160 c3        1 MOL     -0.178367
    176 H77        -2.8960    5.5190   -5.3080 h1        1 MOL      0.086707
    177 H78        -3.6360    6.7850   -4.2990 h1        1 MOL      0.086707
    178 H79        -1.9470    6.9490   -4.8400 h1        1 MOL      0.086707
    179 H80        -2.9040    5.4330   -2.4960 hn        1 MOL      0.199118
    180 Ca1         4.7480    1.6530    1.0570 Ca        1 MOL      1.684595
    181 O27         2.6820    1.9090    2.8810 oh        1 MOL     -0.780516
    182 H81         1.8500    2.2010    2.5020 ho        1 MOL      0.374893
    183 H82         2.4350    1.2630    3.5450 ho        1 MOL      0.374893
    184 O28         5.4490    2.8920    3.4140 oh        1 MOL     -0.780516
    185 H83         4.8600    3.5890    3.7230 ho        1 MOL      0.374893
    186 H84         6.3320    3.2450    3.5520 ho        1 MOL      0.374893
    187 O29         5.9000   -0.1470    2.7710 oh        1 MOL     -0.780516
    188 H85         5.4930   -0.4090    3.5920 ho        1 MOL      0.374893
    189 H86         6.4240   -0.9040    2.5060 ho        1 MOL      0.374893
    190 O30         3.7260    4.1890    1.2320 oh        1 MOL     -0.780516
    191 H87         4.0090    5.0810    1.4110 ho        1 MOL      0.374893
    192 H88         2.7760    4.2470    1.1260 ho        1 MOL      0.374893
@<TRIPOS>BOND
     1    1    2 1   
     2    1    4 1   
     3    1    5 1   
     4    1    6 1   
     5    2    3 2   
     6    2    7 1   
     7    7    8 1   
     8    7   15 1   
     9    8    9 1   
    10    8   11 1   
    11    8   16 1   
    12    9   10 2   
    13    9   19 1   
    14   11   12 1   
    15   11   17 1   
    16   11   18 1   
    17   12   13 1   
    18   12   14 1   
    19   19   20 1   
    20   19   27 1   
    21   20   21 1   
    22   20   23 1   
    23   20   28 1   
    24   21   22 2   
    25   21   38 1   
    26   23   24 1   
    27   23   25 1   
    28   23   29 1   
    29   24   26 1   
    30   24   30 1   
    31   24   31 1   
    32   25   32 1   
    33   25   33 1   
    34   25   34 1   
    35   26   35 1   
    36   26   36 1   
    37   26   37 1   
    38   38   39 1   
    39   38   46 1   
    40   39   40 1   
    41   39   42 1   
    42   39   47 1   
    43   40   41 2   
    44   40   50 1   
    45   42   43 1   
    46   42   48 1   
    47   42   49 1   
    48   43   44 1   
    49   43   45 1   
    50   50   51 1   
    51   50   54 1   
    52   51   52 1   
    53   51   55 1   
    54   51   56 1   
    55   52   53 2   
    56   52   57 1   
    57   57   58 1   
    58   57   65 1   
    59   58   59 1   
    60   58   61 1   
    61   58   66 1   
    62   59   60 2   
    63   59   69 1   
    64   61   62 1   
    65   61   67 1   
    66   61   68 1   
    67   62   63 1   
    68   62   64 1   
    69   69   70 1   
    70   69   73 1   
    71   70   71 1   
    72   70   74 1   
    73   70   75 1   
    74   71   72 2   
    75   71   76 1   
    76   76   77 1   
    77   76   85 1   
    78   77   78 1   
    79   77   80 1   
    80   77   86 1   
    81   78   79 2   
    82   78   93 1   
    83   80   81 1   
    84   80   87 1   
    85   80   88 1   
    86   81   82 1   
    87   81   89 1   
    88   81   90 1   
    89   82   83 1   
    90   82   84 2   
    91   83   91 1   
    92   83   92 1   
    93   93   94 1   
    94   93  100 1   
    95   94   95 1   
    96   94   97 1   
    97   94  101 1   
    98   95   96 2   
    99   95  109 1   
   100   97   98 1   
   101   97   99 1   
   102   97  102 1   
   103   98  103 1   
   104   98  104 1   
   105   98  105 1   
   106   99  106 1   
   107   99  107 1   
   108   99  108 1   
   109  109  110 1   
   110  109  117 1   
   111  110  111 1   
   112  110  113 1   
   113  110  118 1   
   114  111  112 2   
   115  111  123 1   
   116  113  114 1   
   117  113  119 1   
   118  113  120 1   
   119  114  115 1   
   120  114  116 2   
   121  115  121 1   
   122  115  122 1   
   123  123  124 1   
   124  123  135 1   
   125  124  125 1   
   126  124  127 1   
   127  124  136 1   
   128  125  126 2   
   129  125  144 1   
   130  127  128 1   
   131  127  137 1   
   132  127  138 1   
   133  128  129 ar  
   134  128  130 ar  
   135  129  131 ar  
   136  129  139 1   
   137  130  132 ar  
   138  130  140 1   
   139  131  133 ar  
   140  131  141 1   
   141  132  133 ar  
   142  132  142 1   
   143  133  134 1   
   144  134  143 1   
   145  144  145 1   
   146  144  153 1   
   147  145  146 1   
   148  145  148 1   
   149  145  154 1   
   150  146  147 2   
   151  146  159 1   
   152  148  149 1   
   153  148  155 1   
   154  148  156 1   
   155  149  150 1   
   156  149  157 1   
   157  149  158 1   
   158  150  151 1   
   159  150  152 1   
   160  159  160 1   
   161  159  168 1   
   162  160  161 1   
   163  160  163 1   
   164  160  169 1   
   165  161  162 2   
   166  161  174 1   
   167  163  164 1   
   168  163  170 1   
   169  163  171 1   
   170  164  165 1   
   171  164  172 1   
   172  164  173 1   
   173  165  166 1   
   174  165  167 1   
   175  174  175 1   
   176  174  179 1   
   177  175  176 1   
   178  175  177 1   
   179  175  178 1   
   180  181  182 1   
   181  181  183 1   
   182  184  185 1   
   183  184  186 1   
   184  187  188 1   
   185  187  189 1   
   186  190  191 1   
   187  190  192 1   
@<TRIPOS>SUBSTRUCTURE
     1 MOL         1 TEMP              0 ****  ****    0 ROOT
