@<TRIPOS>MOLECULE
MOL
  192   187     1     0     0
SMALL
resp


@<TRIPOS>ATOM
      1 C1          4.6530   -2.1880   -2.3960 c3        1 MOL     -0.142713
      2 C2          3.7070   -3.1130   -1.5580 c         1 MOL      0.631934
      3 O1          2.6140   -2.6760   -1.2850 o         1 MOL     -0.462461
      4 H1          5.6900   -2.4710   -2.2150 hc        1 MOL      0.025041
      5 H2          4.4260   -2.3010   -3.4560 hc        1 MOL      0.025041
      6 H3          4.5030   -1.1510   -2.0990 hc        1 MOL      0.025041
      7 N1          4.2020   -4.3140   -1.1030 n         1 MOL     -0.450481
      8 C3          3.4610   -5.1830   -0.1600 c3        1 MOL      0.021107
      9 C4          1.9130   -5.3470   -0.3850 c         1 MOL      0.645729
     10 O2          1.0990   -5.0730    0.5200 o         1 MOL     -0.560969
     11 C5          3.8830   -4.9760    1.2810 c3        1 MOL     -0.242180
     12 C6          5.3880   -4.5510    1.4420 c         1 MOL      0.862482
     13 O3          5.5570   -3.4350    1.9240 o         1 MOL     -0.808043
     14 O4          6.3140   -5.3750    1.1470 o         1 MOL     -0.808043
     15 H4          5.1190   -4.6400   -1.3940 hn        1 MOL      0.224526
     16 H5          3.8840   -6.1440   -0.4360 h1        1 MOL      0.041427
     17 H6          3.6180   -5.9090    1.7940 hc        1 MOL      0.081291
     18 H7          3.2700   -4.2010    1.7370 hc        1 MOL      0.081291
     19 N2          1.4550   -5.5090   -1.5890 n         1 MOL     -0.604582
     20 C7          0.0330   -5.4240   -1.9690 c3        1 MOL     -0.030288
     21 C8         -0.8930   -6.5160   -1.3130 c         1 MOL      0.651632
     22 O5         -0.4700   -7.6340   -1.0840 o         1 MOL     -0.583770
     23 C9         -0.1240   -5.5410   -3.5010 c3        1 MOL     -0.039631
     24 C10         0.6740   -6.7080   -4.1360 c3        1 MOL      0.113975
     25 C11         0.4250   -4.2070   -4.0660 c3        1 MOL      0.050255
     26 C12         0.3020   -6.9800   -5.5760 c3        1 MOL     -0.119258
     27 H8          2.1100   -5.6820   -2.3440 hn        1 MOL      0.277998
     28 H9         -0.2620   -4.4350   -1.6310 h1        1 MOL      0.221261
     29 H10        -1.1480   -5.7380   -3.8140 hc        1 MOL      0.046134
     30 H11         0.4900   -7.5920   -3.5340 hc        1 MOL     -0.022452
     31 H12         1.7550   -6.6700   -4.0010 hc        1 MOL     -0.022452
     32 H13         0.1630   -4.0660   -5.1170 hc        1 MOL     -0.019335
     33 H14        -0.0660   -3.3460   -3.6060 hc        1 MOL     -0.019335
     34 H15         1.5090   -4.1080   -3.9680 hc        1 MOL     -0.019335
     35 H16        -0.7430   -7.1960   -5.7590 hc        1 MOL      0.016262
     36 H17         0.5600   -6.1180   -6.2000 hc        1 MOL      0.016262
     37 H18         0.8930   -7.8300   -5.9430 hc        1 MOL      0.016262
     38 N3         -2.1460   -6.1890   -1.0500 n         1 MOL     -0.562836
     39 C13        -2.6110   -4.8350   -0.7860 c3        1 MOL      0.218391
     40 C14        -3.6220   -4.8780    0.3560 c         1 MOL      0.535029
     41 O6         -4.2830   -5.9050    0.5480 o         1 MOL     -0.527104
     42 C15        -3.2050   -4.1160   -2.0830 c3        1 MOL     -0.292344
     43 C16        -3.3860   -2.6480   -1.9770 c         1 MOL      0.750979
     44 O7         -2.4990   -1.9800   -1.4250 o         1 MOL     -0.727841
     45 O8         -4.4290   -2.1360   -2.5090 o         1 MOL     -0.727841
     46 H19        -2.7740   -6.9560   -0.8430 hn        1 MOL      0.291700
     47 H20        -1.8670   -4.1960   -0.3030 h1        1 MOL     -0.034003
     48 H21        -4.1350   -4.5900   -2.3970 hc        1 MOL      0.067447
     49 H22        -2.4880   -4.2880   -2.8790 hc        1 MOL      0.067447
     50 N4         -3.7050   -3.7570    1.0950 n         1 MOL     -0.414880
     51 C17        -4.7290   -3.6320    2.1430 c3        1 MOL     -0.196255
     52 C18        -6.1700   -3.4680    1.5880 c         1 MOL      0.692591
     53 O9         -6.5490   -4.0160    0.6080 o         1 MOL     -0.517424
     54 H23        -3.0800   -3.0020    0.8600 hn        1 MOL      0.312081
     55 H24        -4.4740   -2.8070    2.8190 h1        1 MOL      0.104315
     56 H25        -4.7040   -4.5570    2.7170 h1        1 MOL      0.104315
     57 N5         -6.9920   -2.5420    2.1110 n         1 MOL     -0.570686
     58 C19        -8.4450   -2.5380    1.7910 c3        1 MOL     -0.094031
     59 C20        -8.7920   -1.9420    0.4430 c         1 MOL      0.467219
     60 O10        -9.9670   -1.7910    0.0390 o         1 MOL     -0.526571
     61 C21        -9.0710   -1.6410    2.9080 c3        1 MOL     -0.128034
     62 C22        -9.0700   -2.1830    4.3280 c         1 MOL      0.694996
     63 O11        -8.7330   -3.3710    4.5430 o         1 MOL     -0.703730
     64 O12        -9.4730   -1.4070    5.2200 o         1 MOL     -0.703730
     65 H26        -6.6880   -2.2020    3.0140 hn        1 MOL      0.302638
     66 H27        -8.8420   -3.5530    1.7840 h1        1 MOL      0.141915
     67 H28       -10.1230   -1.5000    2.6380 hc        1 MOL      0.040338
     68 H29        -8.5810   -0.6720    2.8930 hc        1 MOL      0.040338
     69 N6         -7.7580   -1.3140   -0.2650 n         1 MOL     -0.237934
     70 C23        -8.0300   -0.4490   -1.4320 c3        1 MOL     -0.225596
     71 C24        -8.0180    1.0410   -1.1600 c         1 MOL      0.574017
     72 O13        -8.6630    1.8270   -1.8560 o         1 MOL     -0.545160
     73 H30        -6.8460   -1.3350    0.1670 hn        1 MOL      0.226346
     74 H31        -9.0060   -0.7450   -1.8400 h1        1 MOL      0.128442
     75 H32        -7.2860   -0.6590   -2.2030 h1        1 MOL      0.128442
     76 N7         -7.3250    1.4110   -0.0290 n         1 MOL     -0.326136
     77 C25        -7.1430    2.8000    0.4760 c3        1 MOL      0.111218
     78 C26        -6.5290    3.8790   -0.5340 c         1 MOL      0.467802
     79 O14        -6.7190    5.0900   -0.3260 o         1 MOL     -0.528538
     80 C27        -8.3420    3.2930    1.2630 c3        1 MOL     -0.049485
     81 C28        -8.8130    2.3050    2.3600 c3        1 MOL     -0.278259
     82 C29        -9.1720    3.1280    3.6100 c         1 MOL      0.682910
     83 N8        -10.0560    4.1300    3.5600 n         1 MOL     -0.809988
     84 O15        -8.7600    2.7490    4.7040 o         1 MOL     -0.550780
     85 H33        -6.7840    0.6900    0.4310 hn        1 MOL      0.225076
     86 H34        -6.3160    2.7200    1.1850 h1        1 MOL      0.055877
     87 H35        -9.1650    3.5300    0.5960 hc        1 MOL      0.030590
     88 H36        -8.0370    4.2570    1.6650 hc        1 MOL      0.030590
     89 H37        -8.0090    1.6090    2.5820 hc        1 MOL      0.101361
     90 H38        -9.7070    1.7540    2.0540 hc        1 MOL      0.101361
     91 H39       -10.5320    4.3440    2.6990 hn        1 MOL      0.353937
     92 H40       -10.3170    4.5430    4.4410 hn        1 MOL      0.353937
     93 N9         -5.6480    3.4590   -1.3930 n         1 MOL     -0.353244
     94 C30        -4.9450    4.2290   -2.4430 c3        1 MOL     -0.110282
     95 C31        -3.4220    3.8790   -2.6830 c         1 MOL      0.578880
     96 O16        -2.6670    4.6840   -3.2600 o         1 MOL     -0.561524
     97 C32        -5.5200    4.0440   -3.8550 c3        1 MOL      0.309627
     98 C33        -5.2170    2.6870   -4.4830 c3        1 MOL     -0.251386
     99 C34        -6.9980    4.3760   -3.9630 c3        1 MOL     -0.251386
    100 H41        -5.4740    2.4620   -1.4180 hn        1 MOL      0.191162
    101 H42        -4.8870    5.2810   -2.1390 h1        1 MOL      0.119326
    102 H43        -5.0960    4.8390   -4.4670 hc        1 MOL     -0.036712
    103 H44        -4.1520    2.5120   -4.6040 hc        1 MOL      0.053705
    104 H45        -5.6970    1.8720   -3.9430 hc        1 MOL      0.053705
    105 H46        -5.6570    2.6230   -5.4800 hc        1 MOL      0.053705
    106 H47        -7.1190    5.4440   -3.7890 hc        1 MOL      0.053705
    107 H48        -7.3170    4.1920   -4.9870 hc        1 MOL      0.053705
    108 H49        -7.6260    3.7890   -3.2970 hc        1 MOL      0.053705
    109 N10        -2.8840    2.6610   -2.3130 n         1 MOL     -0.449273
    110 C35        -1.4890    2.3460   -2.3010 c3        1 MOL      0.084457
    111 C36        -0.7780    3.0970   -1.1290 c         1 MOL      0.633856
    112 O17        -1.3840    3.2850   -0.0900 o         1 MOL     -0.599243
    113 C37        -1.3520    0.8250   -2.1490 c3        1 MOL     -0.213011
    114 C38         0.0590    0.3050   -2.3350 c         1 MOL      0.630390
    115 N11         0.3530   -0.9850   -2.0920 n         1 MOL     -0.657412
    116 O18         0.9880    0.8930   -2.8700 o         1 MOL     -0.574283
    117 H50        -3.4770    1.9850   -1.8430 hn        1 MOL      0.255916
    118 H51        -0.9840    2.7150   -3.1980 h1        1 MOL      0.057549
    119 H52        -1.9600    0.3000   -2.8820 hc        1 MOL      0.114411
    120 H53        -1.6960    0.5700   -1.1440 hc        1 MOL      0.114411
    121 H54        -0.3410   -1.4960   -1.5620 hn        1 MOL      0.288279
    122 H55         1.3160   -1.2640   -2.2010 hn        1 MOL      0.288279
    123 N12         0.5140    3.2210   -1.1540 n         1 MOL     -0.519125
    124 C39         1.4130    3.5560    0.0130 c3        1 MOL      0.172144
    125 C40         2.7770    4.0880   -0.3390 c         1 MOL      0.645471
    126 O19         3.2210    3.7190   -1.3910 o         1 MOL     -0.589402
    127 C41         1.5370    2.2590    0.8810 c3        1 MOL     -0.122990
    128 C42         1.9180    2.4740    2.3340 ca        1 MOL      0.061680
    129 C43         3.2910    2.2590    2.7980 ca        1 MOL     -0.238931
    130 C44         0.9370    2.8810    3.3090 ca        1 MOL     -0.238931
    131 C45         3.6030    2.6920    4.0870 ca        1 MOL     -0.141828
    132 C46         1.2870    3.2550    4.6090 ca        1 MOL     -0.141828
    133 C47         2.6450    3.1700    4.9960 ca        1 MOL      0.231354
    134 O20         3.0120    3.6030    6.2570 oh        1 MOL     -0.517778
    135 H56         0.9290    2.9390   -2.0320 hn        1 MOL      0.254307
    136 H57         0.9600    4.3130    0.6450 h1        1 MOL      0.019902
    137 H58         2.2820    1.5670    0.4720 hc        1 MOL      0.074001
    138 H59         0.5640    1.7800    0.7600 hc        1 MOL      0.074001
    139 H60         4.0370    1.8270    2.1550 ha        1 MOL      0.178120
    140 H61        -0.1030    2.9330    3.0310 ha        1 MOL      0.178120
    141 H62         4.5290    2.3210    4.4830 ha        1 MOL      0.114341
    142 H63         0.5760    3.7600    5.2480 ha        1 MOL      0.114341
    143 H64         3.9620    3.5840    6.4210 ho        1 MOL      0.375338
    144 N13         3.3710    4.9370    0.4740 n         1 MOL     -0.611307
    145 C48         4.8090    5.3280    0.3390 c3        1 MOL      0.204656
    146 C49         5.7570    4.5530    1.2810 c         1 MOL      0.535577
    147 O21         5.8700    4.7900    2.4480 o         1 MOL     -0.562465
    148 C50         4.8850    6.9020    0.6000 c3        1 MOL     -0.241587
    149 C51         4.3050    7.6760   -0.6570 c3        1 MOL     -0.109047
    150 C52         4.7290    9.1480   -0.6650 c         1 MOL      0.686594
    151 O22         4.0710    9.9140    0.0630 o         1 MOL     -0.698448
    152 O23         5.5590    9.5470   -1.5350 o         1 MOL     -0.698448
    153 H65         2.8940    5.1830    1.3310 hn        1 MOL      0.341326
    154 H66         5.0700    5.2770   -0.7210 h1        1 MOL      0.089299
    155 H67         5.9370    7.1450    0.7590 hc        1 MOL      0.082101
    156 H68         4.3420    7.1740    1.5080 hc        1 MOL      0.082101
    157 H69         3.2330    7.5200   -0.7090 hc        1 MOL      0.030427
    158 H70         4.6050    7.1860   -1.5850 hc        1 MOL      0.030427
    159 N14         6.5080    3.5590    0.7510 n         1 MOL     -0.494553
    160 C53         6.5680    2.9430   -0.5670 c3        1 MOL      0.116184
    161 C54         7.0390    3.9310   -1.6630 c         1 MOL      0.459436
    162 O24         7.9290    4.7480   -1.3510 o         1 MOL     -0.543095
    163 C55         7.3620    1.6120   -0.5380 c3        1 MOL     -0.238670
    164 C56         6.5380    0.5880    0.3390 c3        1 MOL     -0.435124
    165 C57         7.3130   -0.7090    0.6510 c         1 MOL      1.104611
    166 O25         7.1850   -1.7670   -0.0260 o         1 MOL     -0.851472
    167 O26         7.9670   -0.9090    1.6940 o         1 MOL     -0.851472
    168 H71         7.2400    3.1830    1.3360 hn        1 MOL      0.307519
    169 H72         5.5510    2.6500   -0.8500 h1        1 MOL      0.066376
    170 H73         8.3740    1.8100   -0.1910 hc        1 MOL      0.081895
    171 H74         7.3920    1.1830   -1.5390 hc        1 MOL      0.081895
    172 H75         5.5590    0.3640   -0.0990 hc        1 MOL      0.124490
    173 H76         6.2450    0.9740    1.3120 hc        1 MOL      0.124490
    174 N15         6.6150    3.7680   -2.8820 n         1 MOL     -0.253629
    175 C58         6.9860    4.5720   -4.0400 c3        1 MOL     -0.247994
    176 H77         8.0640    4.5150   -4.1920 h1        1 MOL      0.107933
    177 H78         6.4740    4.1930   -4.9250 h1        1 MOL      0.107933
    178 H79         6.6980    5.6100   -3.8700 h1        1 MOL      0.107933
    179 H80         5.9340    3.0330   -3.0660 hn        1 MOL      0.263956
    180 Ca1         8.2700   -3.6220    1.4690 Ca        1 MOL      1.741771
    181 O27        10.2670   -2.7460    3.2300 oh        1 MOL     -0.864064
    182 H81        10.0980   -3.0280    4.1280 ho        1 MOL      0.407154
    183 H82        10.9990   -2.1280    3.2950 ho        1 MOL      0.407154
    184 O28         7.7470   -4.7380    3.8980 oh        1 MOL     -0.864064
    185 H83         8.0470   -4.3910    4.7440 ho        1 MOL      0.407154
    186 H84         7.1350   -5.4370    4.1390 ho        1 MOL      0.407154
    187 O29         9.8190   -6.0180    2.2250 oh        1 MOL     -0.864064
    188 H85         9.2210   -6.3710    2.8840 ho        1 MOL      0.407154
    189 H86        10.6890   -6.1940    2.5650 ho        1 MOL      0.407154
    190 O30        10.1750   -2.3690    0.0730 oh        1 MOL     -0.864064
    191 H87        10.8020   -1.7970    0.5100 ho        1 MOL      0.407154
    192 H88        10.6490   -2.7460   -0.6610 ho        1 MOL      0.407154
@<TRIPOS>BOND
     1    1    2 1   
     2    1    4 1   
     3    1    5 1   
     4    1    6 1   
     5    2    3 2   
     6    2    7 1   
     7    7    8 1   
     8    7   15 1   
     9    8    9 1   
    10    8   11 1   
    11    8   16 1   
    12    9   10 2   
    13    9   19 1   
    14   11   12 1   
    15   11   17 1   
    16   11   18 1   
    17   12   13 1   
    18   12   14 1   
    19   19   20 1   
    20   19   27 1   
    21   20   21 1   
    22   20   23 1   
    23   20   28 1   
    24   21   22 2   
    25   21   38 1   
    26   23   24 1   
    27   23   25 1   
    28   23   29 1   
    29   24   26 1   
    30   24   30 1   
    31   24   31 1   
    32   25   32 1   
    33   25   33 1   
    34   25   34 1   
    35   26   35 1   
    36   26   36 1   
    37   26   37 1   
    38   38   39 1   
    39   38   46 1   
    40   39   40 1   
    41   39   42 1   
    42   39   47 1   
    43   40   41 2   
    44   40   50 1   
    45   42   43 1   
    46   42   48 1   
    47   42   49 1   
    48   43   44 1   
    49   43   45 1   
    50   50   51 1   
    51   50   54 1   
    52   51   52 1   
    53   51   55 1   
    54   51   56 1   
    55   52   53 2   
    56   52   57 1   
    57   57   58 1   
    58   57   65 1   
    59   58   59 1   
    60   58   61 1   
    61   58   66 1   
    62   59   60 2   
    63   59   69 1   
    64   61   62 1   
    65   61   67 1   
    66   61   68 1   
    67   62   63 1   
    68   62   64 1   
    69   69   70 1   
    70   69   73 1   
    71   70   71 1   
    72   70   74 1   
    73   70   75 1   
    74   71   72 2   
    75   71   76 1   
    76   76   77 1   
    77   76   85 1   
    78   77   78 1   
    79   77   80 1   
    80   77   86 1   
    81   78   79 2   
    82   78   93 1   
    83   80   81 1   
    84   80   87 1   
    85   80   88 1   
    86   81   82 1   
    87   81   89 1   
    88   81   90 1   
    89   82   83 1   
    90   82   84 2   
    91   83   91 1   
    92   83   92 1   
    93   93   94 1   
    94   93  100 1   
    95   94   95 1   
    96   94   97 1   
    97   94  101 1   
    98   95   96 2   
    99   95  109 1   
   100   97   98 1   
   101   97   99 1   
   102   97  102 1   
   103   98  103 1   
   104   98  104 1   
   105   98  105 1   
   106   99  106 1   
   107   99  107 1   
   108   99  108 1   
   109  109  110 1   
   110  109  117 1   
   111  110  111 1   
   112  110  113 1   
   113  110  118 1   
   114  111  112 2   
   115  111  123 1   
   116  113  114 1   
   117  113  119 1   
   118  113  120 1   
   119  114  115 1   
   120  114  116 2   
   121  115  121 1   
   122  115  122 1   
   123  123  124 1   
   124  123  135 1   
   125  124  125 1   
   126  124  127 1   
   127  124  136 1   
   128  125  126 2   
   129  125  144 1   
   130  127  128 1   
   131  127  137 1   
   132  127  138 1   
   133  128  129 ar  
   134  128  130 ar  
   135  129  131 ar  
   136  129  139 1   
   137  130  132 ar  
   138  130  140 1   
   139  131  133 ar  
   140  131  141 1   
   141  132  133 ar  
   142  132  142 1   
   143  133  134 1   
   144  134  143 1   
   145  144  145 1   
   146  144  153 1   
   147  145  146 1   
   148  145  148 1   
   149  145  154 1   
   150  146  147 2   
   151  146  159 1   
   152  148  149 1   
   153  148  155 1   
   154  148  156 1   
   155  149  150 1   
   156  149  157 1   
   157  149  158 1   
   158  150  151 1   
   159  150  152 1   
   160  159  160 1   
   161  159  168 1   
   162  160  161 1   
   163  160  163 1   
   164  160  169 1   
   165  161  162 2   
   166  161  174 1   
   167  163  164 1   
   168  163  170 1   
   169  163  171 1   
   170  164  165 1   
   171  164  172 1   
   172  164  173 1   
   173  165  166 1   
   174  165  167 1   
   175  174  175 1   
   176  174  179 1   
   177  175  176 1   
   178  175  177 1   
   179  175  178 1   
   180  181  182 1   
   181  181  183 1   
   182  184  185 1   
   183  184  186 1   
   184  187  188 1   
   185  187  189 1   
   186  190  191 1   
   187  190  192 1   
@<TRIPOS>SUBSTRUCTURE
     1 MOL         1 TEMP              0 ****  ****    0 ROOT
