@<TRIPOS>MOLECULE
MOL
  192   187     1     0     0
SMALL
resp


@<TRIPOS>ATOM
      1 C1         -7.1370   -2.1820    4.7370 c3        1 MOL     -0.197821
      2 C2         -6.2940   -1.7480    3.6170 c         1 MOL      0.819240
      3 O1         -5.8910   -2.5260    2.7760 o         1 MOL     -0.631791
      4 H1         -6.8630   -3.1970    5.0260 hc        1 MOL      0.049375
      5 H2         -6.9900   -1.5120    5.5850 hc        1 MOL      0.049375
      6 H3         -8.1840   -2.1610    4.4340 hc        1 MOL      0.049375
      7 N1         -6.0160   -0.4540    3.4020 n         1 MOL     -0.712197
      8 C3         -5.5150    0.2170    2.1820 c3        1 MOL      0.444928
      9 C4         -4.0680   -0.0840    1.8830 c         1 MOL      0.025915
     10 O2         -3.4600    0.5560    0.9880 o         1 MOL     -0.214664
     11 C5         -5.6980    1.7020    2.1600 c3        1 MOL     -0.138250
     12 C6         -7.0980    2.1600    2.5090 c         1 MOL      0.646399
     13 O3         -7.6540    3.0820    1.8490 o         1 MOL     -0.675489
     14 O4         -7.6360    1.6930    3.5770 o         1 MOL     -0.675489
     15 H4         -6.4280    0.2480    3.9940 hn        1 MOL      0.283529
     16 H5         -5.9900   -0.1590    1.2750 h1        1 MOL      0.048324
     17 H6         -5.4350    2.1270    1.1930 hc        1 MOL     -0.035148
     18 H7         -4.9840    2.1250    2.8660 hc        1 MOL     -0.035148
     19 N2         -3.4580   -0.9880    2.6350 n         1 MOL     -0.024577
     20 C7         -1.9640   -1.1190    2.7700 c3        1 MOL      0.063098
     21 C8         -1.4900   -2.4180    2.0760 c         1 MOL      0.311130
     22 O5         -2.0720   -3.4280    2.3240 o         1 MOL     -0.449362
     23 C9         -1.5080   -1.0390    4.2390 c3        1 MOL     -0.184864
     24 C10        -1.8120    0.2350    5.0240 c3        1 MOL     -0.088396
     25 C11        -0.8960    1.4420    4.6030 c3        1 MOL      0.110028
     26 C12        -1.1450    2.6830    5.5650 c3        1 MOL     -0.202701
     27 N3         -0.3520    3.7730    5.0360 n4        1 MOL     -0.213582
     28 H8         -4.0230   -1.4520    3.3390 hn        1 MOL      0.160358
     29 H9         -1.5280   -0.2810    2.2210 h1        1 MOL      0.054769
     30 H10        -0.4330   -1.1840    4.3400 hc        1 MOL      0.081897
     31 H11        -1.9770   -1.9000    4.7260 hc        1 MOL      0.081897
     32 H12        -1.7110    0.1070    6.1040 hc        1 MOL      0.037332
     33 H13        -2.8590    0.4370    4.8170 hc        1 MOL      0.037332
     34 H14        -1.2090    1.5620    3.5700 hc        1 MOL      0.035966
     35 H15         0.1820    1.2760    4.6240 hc        1 MOL      0.035966
     36 H16        -0.7310    2.3830    6.5310 hx        1 MOL      0.133880
     37 H17        -2.2160    2.8660    5.5020 hx        1 MOL      0.133880
     38 H18         0.6160    3.6100    5.2430 hn        1 MOL      0.293559
     39 H19        -0.4140    3.8880    4.0400 hn        1 MOL      0.293559
     40 H20        -0.5310    4.6770    5.4570 hn        1 MOL      0.293559
     41 N4         -0.4000   -2.4490    1.2770 n         1 MOL     -0.148139
     42 C13         0.5390   -1.3840    0.7870 c3        1 MOL     -0.138202
     43 C14         1.1000   -0.3990    1.8980 c         1 MOL      0.764834
     44 O6          0.6550    0.7270    2.0350 o         1 MOL     -0.666715
     45 C15        -0.0400   -0.5810   -0.3660 c3        1 MOL     -0.527036
     46 C16        -0.1770   -1.4070   -1.6940 c         1 MOL      1.000853
     47 O7          0.4100   -2.5110   -1.8510 o         1 MOL     -0.821775
     48 O8         -0.9340   -0.9710   -2.6340 o         1 MOL     -0.821775
     49 H21        -0.3130   -3.4020    0.9460 hn        1 MOL      0.119474
     50 H22         1.4030   -1.8650    0.3410 h1        1 MOL      0.026285
     51 H23         0.5840    0.2860   -0.5740 hc        1 MOL      0.188819
     52 H24        -1.0420   -0.2400   -0.1230 hc        1 MOL      0.188819
     53 N5          2.1730   -0.7660    2.5460 n         1 MOL     -0.460600
     54 C17         2.9290   -1.9920    2.3360 c3        1 MOL     -0.057619
     55 C18         4.1850   -1.9740    3.1770 c         1 MOL      0.581757
     56 O9          4.4610   -1.2190    4.1300 o         1 MOL     -0.538708
     57 H25         2.5330   -0.1020    3.2070 hn        1 MOL      0.282933
     58 H26         3.2990   -2.1640    1.3320 h1        1 MOL      0.091619
     59 H27         2.3170   -2.8480    2.6330 h1        1 MOL      0.091619
     60 N6          5.1520   -2.9250    2.9010 n         1 MOL     -0.626741
     61 C19         5.1700   -3.8730    1.7720 c3        1 MOL      0.327820
     62 C20         6.1940   -3.4380    0.7300 c         1 MOL      0.318840
     63 O10         7.1670   -2.7720    1.1440 o         1 MOL     -0.399263
     64 C21         5.4880   -5.3060    2.2170 c3        1 MOL     -0.119438
     65 C22         6.7490   -5.5490    3.0280 c         1 MOL      0.764042
     66 O11         7.2740   -4.6790    3.6990 o         1 MOL     -0.680250
     67 O12         7.1260   -6.7140    2.9230 o         1 MOL     -0.680250
     68 H28         5.9460   -2.8660    3.5090 hn        1 MOL      0.376911
     69 H29         4.2310   -4.0910    1.2470 h1        1 MOL     -0.079733
     70 H30         5.5600   -5.8690    1.2800 hc        1 MOL     -0.020207
     71 H31         4.5910   -5.6030    2.7690 hc        1 MOL     -0.020207
     72 N7          5.9370   -3.7940   -0.5640 n         1 MOL     -0.174720
     73 C23         6.9170   -3.2750   -1.5220 c3        1 MOL     -0.309984
     74 C24         6.8040   -1.7400   -1.7890 c         1 MOL      0.525752
     75 O13         7.7630   -1.0040   -2.0270 o         1 MOL     -0.533693
     76 H32         5.1800   -4.4060   -0.8300 hn        1 MOL      0.195127
     77 H33         6.7480   -3.7110   -2.5140 h1        1 MOL      0.138499
     78 H34         7.9470   -3.5600   -1.2830 h1        1 MOL      0.138499
     79 N8          5.5770   -1.2340   -1.6070 n         1 MOL     -0.243755
     80 C25         5.2730    0.1080   -1.9430 c3        1 MOL     -0.016209
     81 C26         5.4580    1.0010   -0.7240 c         1 MOL      0.492027
     82 O14         5.0930    0.7130    0.4040 o         1 MOL     -0.504102
     83 C27         3.7950    0.2400   -2.3530 c3        1 MOL      0.418182
     84 C28         3.5030   -0.4990   -3.6520 c3        1 MOL     -0.351393
     85 O15         3.4290    1.6460   -2.4460 oh        1 MOL     -0.573397
     86 H35         4.8570   -1.9230   -1.3980 hn        1 MOL      0.112910
     87 H36         6.0150    0.4710   -2.6630 h1        1 MOL      0.062865
     88 H37         3.1250   -0.2100   -1.6300 h1        1 MOL      0.051851
     89 H38         2.6540    1.8230   -1.9220 ho        1 MOL      0.231199
     90 H39         4.0460   -0.0210   -4.4700 hc        1 MOL      0.073393
     91 H40         3.8290   -1.5340   -3.6750 hc        1 MOL      0.073393
     92 H41         2.4270   -0.4360   -3.8240 hc        1 MOL      0.073393
     93 N9          6.0470    2.2280   -0.9960 n         1 MOL     -0.333723
     94 C29         6.1930    3.3160    0.0410 c3        1 MOL     -0.080513
     95 C30         4.8940    4.1450    0.2300 c         1 MOL      0.393124
     96 O16         4.8430    5.0140    1.1550 o         1 MOL     -0.548921
     97 C31         7.4760    4.1230   -0.0840 c3        1 MOL     -0.042552
     98 C32         7.6880    4.7960   -1.5410 c3        1 MOL      0.014561
     99 C33         8.7040    3.2050    0.2920 c3        1 MOL     -0.173912
    100 C34         6.5700    5.7700   -1.8130 c3        1 MOL     -0.045735
    101 H42         6.3020    2.4780   -1.9380 hn        1 MOL      0.266211
    102 H43         6.2910    2.7440    0.9580 h1        1 MOL      0.158653
    103 H44         7.4430    4.8680    0.7040 hc        1 MOL      0.082080
    104 H45         7.7680    4.0020   -2.2820 hc        1 MOL      0.003189
    105 H46         8.5980    5.3780   -1.5770 hc        1 MOL      0.003189
    106 H47         8.6920    2.2330   -0.1950 hc        1 MOL      0.059148
    107 H48         9.6550    3.6840    0.0780 hc        1 MOL      0.059148
    108 H49         8.7880    2.9760    1.3550 hc        1 MOL      0.059148
    109 H50         6.9110    6.4440   -2.6020 hc        1 MOL      0.022026
    110 H51         5.7230    5.2080   -2.2150 hc        1 MOL      0.022026
    111 H52         6.1400    6.3440   -0.9930 hc        1 MOL      0.022026
    112 N10         3.8840    4.0900   -0.6270 n         1 MOL     -0.234119
    113 C35         2.5550    4.7550   -0.5040 c3        1 MOL      0.163249
    114 C36         1.2620    3.8990   -0.6650 c         1 MOL      0.317553
    115 O17         1.2390    2.9540   -1.4920 o         1 MOL     -0.318843
    116 C37         2.4780    5.9620   -1.3580 c3        1 MOL      0.315616
    117 C38         2.6610    5.7420   -2.8540 c3        1 MOL     -0.101358
    118 O18         3.4840    6.8830   -1.0200 oh        1 MOL     -0.619032
    119 H53         4.0910    3.5720   -1.4710 hn        1 MOL      0.165573
    120 H54         2.4920    5.1400    0.5210 h1        1 MOL     -0.004935
    121 H55         1.5050    6.4080   -1.1670 h1        1 MOL     -0.034794
    122 H56         3.3840    7.1240   -0.0970 ho        1 MOL      0.389516
    123 H57         3.6610    5.4630   -3.1890 hc        1 MOL      0.035579
    124 H58         1.9660    4.9930   -3.2300 hc        1 MOL      0.035579
    125 H59         2.4270    6.6580   -3.3940 hc        1 MOL      0.035579
    126 N11         0.1850    4.1200    0.0920 n         1 MOL     -0.408293
    127 C39        -0.9970    3.2350    0.1280 c3        1 MOL     -0.011478
    128 C40        -1.6810    3.0340   -1.2010 c         1 MOL      0.158982
    129 O19        -1.6870    3.9180   -2.0640 o         1 MOL     -0.478836
    130 C41        -2.1280    3.7040    1.0160 c3        1 MOL      0.490655
    131 C42        -2.6940    5.0770    0.6500 c3        1 MOL     -0.313190
    132 O20        -1.6640    3.7710    2.3320 oh        1 MOL     -0.772882
    133 H60         0.2710    4.9710    0.6360 hn        1 MOL      0.291249
    134 H61        -0.6400    2.2760    0.5070 h1        1 MOL      0.268481
    135 H62        -2.9340    2.9830    1.0310 h1        1 MOL      0.048657
    136 H63        -2.3960    4.1790    2.8070 ho        1 MOL      0.428725
    137 H64        -3.3120    5.3850    1.5010 hc        1 MOL      0.074597
    138 H65        -1.8720    5.7980    0.6030 hc        1 MOL      0.074597
    139 H66        -3.4030    5.0510   -0.1790 hc        1 MOL      0.074597
    140 N12        -2.4460    1.9210   -1.3690 n         1 MOL      0.374392
    141 C43        -3.2190    1.6490   -2.6180 c3        1 MOL     -0.260356
    142 C44        -3.6180    0.1830   -2.8960 c         1 MOL      0.805809
    143 O21        -3.8000   -0.2140   -4.0620 o         1 MOL     -0.632638
    144 C45        -4.4190    2.5960   -2.7170 c3        1 MOL     -0.239879
    145 C46        -5.4230    2.5300   -1.5610 c3        1 MOL     -0.040347
    146 C47        -6.9530    2.4620   -1.8940 c3        1 MOL     -0.177291
    147 C48        -7.2940    3.3580   -3.0660 c3        1 MOL      0.119823
    148 N13        -7.1030    4.8330   -2.9000 n4        1 MOL     -0.410407
    149 H67        -2.4410    1.2930   -0.5880 hn        1 MOL     -0.611155
    150 H68        -2.5120    1.7680   -3.4420 h1        1 MOL      0.139635
    151 H69        -4.8290    2.1300   -3.6100 hc        1 MOL      0.078540
    152 H70        -4.1220    3.6300   -2.8910 hc        1 MOL      0.078540
    153 H71        -5.2780    3.3980   -0.9120 hc        1 MOL      0.051473
    154 H72        -5.2060    1.5960   -1.0360 hc        1 MOL      0.051473
    155 H73        -7.5500    2.5920   -1.0010 hc        1 MOL      0.096523
    156 H74        -7.1910    1.4380   -2.1640 hc        1 MOL      0.096523
    157 H75        -8.3050    3.1030   -3.3530 hx        1 MOL      0.057676
    158 H76        -6.6950    3.0860   -3.9380 hx        1 MOL      0.057676
    159 H77        -6.3400    5.0690   -2.2900 hn        1 MOL      0.335666
    160 H78        -7.0370    5.4350   -3.6990 hn        1 MOL      0.335666
    161 H79        -7.9350    5.1580   -2.4320 hn        1 MOL      0.335666
    162 N14        -3.7330   -0.5270   -1.8160 n         1 MOL      0.112569
    163 C49        -4.3380   -1.8480   -1.7490 c3        1 MOL     -1.395308
    164 C50        -5.8770   -1.9070   -1.6620 c         1 MOL      1.031059
    165 O22        -6.4660   -1.1570   -0.9440 o         1 MOL     -0.583118
    166 C51        -3.7130   -2.6240   -0.6020 c3        1 MOL      0.959650
    167 C52        -4.2260   -4.0790   -0.5030 c3        1 MOL     -0.889073
    168 C53        -3.8250   -4.9070   -1.7210 c         1 MOL      1.072699
    169 O23        -4.5540   -4.8250   -2.7730 o         1 MOL     -0.884407
    170 O24        -2.6500   -5.3690   -1.7980 o         1 MOL     -0.884407
    171 H80        -3.4660   -0.0970   -0.9410 hn        1 MOL      0.357891
    172 H81        -4.0540   -2.4190   -2.6320 h1        1 MOL      0.302733
    173 H82        -4.1170   -2.0330    0.2130 hc        1 MOL     -0.167791
    174 H83        -2.6320   -2.5630   -0.4850 hc        1 MOL     -0.167791
    175 H84        -5.2820   -4.1390   -0.2480 hc        1 MOL      0.208253
    176 H85        -3.6970   -4.4220    0.3910 hc        1 MOL      0.208253
    177 N15        -6.5230   -2.7410   -2.5010 n         1 MOL     -0.657010
    178 C54        -7.9840   -2.9280   -2.6420 c3        1 MOL     -0.046394
    179 H86        -8.3230   -2.4550   -3.5640 h1        1 MOL      0.063508
    180 H87        -8.2130   -3.9930   -2.6750 h1        1 MOL      0.063508
    181 H88        -8.4930   -2.4720   -1.7930 h1        1 MOL      0.063508
    182 H89        -6.0110   -3.4440   -3.0170 hn        1 MOL      0.551109
    183 Ca1        -0.2000   -4.9300   -2.4390 Ca        1 MOL      1.700556
    184 O25        -1.7080   -3.1710   -3.7500 oh        1 MOL     -0.854562
    185 H90        -1.6770   -2.2960   -3.3680 ho        1 MOL      0.432915
    186 H91        -1.9050   -3.0230   -4.6730 ho        1 MOL      0.432915
    187 O26        -0.3610   -6.5580   -4.6140 oh        1 MOL     -0.854562
    188 H92        -0.9470   -7.2660   -4.3350 ho        1 MOL      0.432915
    189 H93        -0.7130   -6.2980   -5.4770 ho        1 MOL      0.432915
    190 O27         1.6550   -3.8990   -4.3570 oh        1 MOL     -0.854562
    191 H94         1.4760   -3.1120   -4.8640 ho        1 MOL      0.432915
    192 H95         2.6100   -3.9480   -4.3070 ho        1 MOL      0.432915
@<TRIPOS>BOND
     1    1    2 1   
     2    1    4 1   
     3    1    5 1   
     4    1    6 1   
     5    2    3 2   
     6    2    7 1   
     7    7    8 1   
     8    7   15 1   
     9    8    9 1   
    10    8   11 1   
    11    8   16 1   
    12    9   10 2   
    13    9   19 1   
    14   11   12 1   
    15   11   17 1   
    16   11   18 1   
    17   12   13 1   
    18   12   14 1   
    19   19   20 1   
    20   19   28 1   
    21   20   21 1   
    22   20   23 1   
    23   20   29 1   
    24   21   22 2   
    25   21   41 1   
    26   23   24 1   
    27   23   30 1   
    28   23   31 1   
    29   24   25 1   
    30   24   32 1   
    31   24   33 1   
    32   25   26 1   
    33   25   34 1   
    34   25   35 1   
    35   26   27 1   
    36   26   36 1   
    37   26   37 1   
    38   27   38 1   
    39   27   39 1   
    40   27   40 1   
    41   41   42 1   
    42   41   49 1   
    43   42   43 1   
    44   42   45 1   
    45   42   50 1   
    46   43   44 2   
    47   43   53 1   
    48   45   46 1   
    49   45   51 1   
    50   45   52 1   
    51   46   47 1   
    52   46   48 1   
    53   53   54 1   
    54   53   57 1   
    55   54   55 1   
    56   54   58 1   
    57   54   59 1   
    58   55   56 2   
    59   55   60 1   
    60   60   61 1   
    61   60   68 1   
    62   61   62 1   
    63   61   64 1   
    64   61   69 1   
    65   62   63 2   
    66   62   72 1   
    67   64   65 1   
    68   64   70 1   
    69   64   71 1   
    70   65   66 1   
    71   65   67 1   
    72   72   73 1   
    73   72   76 1   
    74   73   74 1   
    75   73   77 1   
    76   73   78 1   
    77   74   75 2   
    78   74   79 1   
    79   79   80 1   
    80   79   86 1   
    81   80   81 1   
    82   80   83 1   
    83   80   87 1   
    84   81   82 2   
    85   81   93 1   
    86   83   84 1   
    87   83   85 1   
    88   83   88 1   
    89   84   90 1   
    90   84   91 1   
    91   84   92 1   
    92   85   89 1   
    93   93   94 1   
    94   93  101 1   
    95   94   95 1   
    96   94   97 1   
    97   94  102 1   
    98   95   96 2   
    99   95  112 1   
   100   97   98 1   
   101   97   99 1   
   102   97  103 1   
   103   98  100 1   
   104   98  104 1   
   105   98  105 1   
   106   99  106 1   
   107   99  107 1   
   108   99  108 1   
   109  100  109 1   
   110  100  110 1   
   111  100  111 1   
   112  112  113 1   
   113  112  119 1   
   114  113  114 1   
   115  113  116 1   
   116  113  120 1   
   117  114  115 2   
   118  114  126 1   
   119  116  117 1   
   120  116  118 1   
   121  116  121 1   
   122  117  123 1   
   123  117  124 1   
   124  117  125 1   
   125  118  122 1   
   126  126  127 1   
   127  126  133 1   
   128  127  128 1   
   129  127  130 1   
   130  127  134 1   
   131  128  129 2   
   132  128  140 1   
   133  130  131 1   
   134  130  132 1   
   135  130  135 1   
   136  131  137 1   
   137  131  138 1   
   138  131  139 1   
   139  132  136 1   
   140  140  141 1   
   141  140  149 1   
   142  141  142 1   
   143  141  144 1   
   144  141  150 1   
   145  142  143 2   
   146  142  162 1   
   147  144  145 1   
   148  144  151 1   
   149  144  152 1   
   150  145  146 1   
   151  145  153 1   
   152  145  154 1   
   153  146  147 1   
   154  146  155 1   
   155  146  156 1   
   156  147  148 1   
   157  147  157 1   
   158  147  158 1   
   159  148  159 1   
   160  148  160 1   
   161  148  161 1   
   162  162  163 1   
   163  162  171 1   
   164  163  164 1   
   165  163  166 1   
   166  163  172 1   
   167  164  165 2   
   168  164  177 1   
   169  166  167 1   
   170  166  173 1   
   171  166  174 1   
   172  167  168 1   
   173  167  175 1   
   174  167  176 1   
   175  168  169 1   
   176  168  170 1   
   177  177  178 1   
   178  177  182 1   
   179  178  179 1   
   180  178  180 1   
   181  178  181 1   
   182  184  185 1   
   183  184  186 1   
   184  187  188 1   
   185  187  189 1   
   186  190  191 1   
   187  190  192 1   
@<TRIPOS>SUBSTRUCTURE
     1 MOL         1 TEMP              0 ****  ****    0 ROOT
