@<TRIPOS>MOLECULE
MOL
  181   177     1     0     0
SMALL
resp


@<TRIPOS>ATOM
      1 C1          6.9700   -5.7640    4.9230 c3        1 MOL     -0.320992
      2 C2          6.3270   -4.7770    4.0100 c         1 MOL      0.718383
      3 O1          5.2590   -4.2680    4.4090 o         1 MOL     -0.559912
      4 H1          7.3440   -6.6060    4.3400 hc        1 MOL      0.074659
      5 H2          7.7990   -5.2880    5.4470 hc        1 MOL      0.074659
      6 H3          6.2380   -6.1200    5.6470 hc        1 MOL      0.074659
      7 N1          6.8320   -4.4820    2.7490 n         1 MOL     -0.582848
      8 C3          7.9470   -5.0840    1.9430 c3        1 MOL      0.149459
      9 C4          7.4430   -5.3330    0.5080 c         1 MOL      0.495497
     10 O2          6.2390   -5.5600    0.3250 o         1 MOL     -0.474097
     11 C5          9.1680   -4.1030    2.0040 c3        1 MOL     -0.257661
     12 C6          8.8270   -2.6670    1.4490 c         1 MOL      0.783118
     13 O3          8.9580   -2.4670    0.2390 o         1 MOL     -0.760355
     14 O4          8.5410   -1.6880    2.2190 o         1 MOL     -0.760355
     15 H4          6.1530   -3.9330    2.2380 hn        1 MOL      0.322407
     16 H5          8.2800   -6.0270    2.3700 h1        1 MOL      0.046575
     17 H6          9.9710   -4.4890    1.3920 hc        1 MOL      0.044185
     18 H7          9.5300   -3.9920    3.0220 hc        1 MOL      0.044185
     19 N2          8.2740   -5.3730   -0.5040 n         1 MOL     -0.640306
     20 C7          7.8870   -5.6020   -1.8970 c3        1 MOL      0.478281
     21 C8          6.8010   -4.6810   -2.5410 c         1 MOL      0.211535
     22 O5          6.1870   -5.0870   -3.5970 o         1 MOL     -0.516316
     23 C9          7.8160   -7.0990   -2.2500 c3        1 MOL     -0.359417
     24 H8          9.2210   -5.1600   -0.2330 hn        1 MOL      0.329268
     25 H9          8.7650   -5.2040   -2.3920 h1        1 MOL     -0.024785
     26 H10         8.7820   -7.5820   -2.1710 hc        1 MOL      0.089210
     27 H11         7.1380   -7.5240   -1.5090 hc        1 MOL      0.089210
     28 H12         7.4640   -7.1590   -3.2820 hc        1 MOL      0.089210
     29 N3          6.5390   -3.5020   -1.9830 n         1 MOL      0.012945
     30 C10         5.5450   -2.4840   -2.4390 c3        1 MOL     -0.209921
     31 C11         6.2310   -1.0800   -2.5570 c         1 MOL      0.584339
     32 O6          7.3450   -0.9680   -2.1100 o         1 MOL     -0.651399
     33 C12         4.3880   -2.4580   -1.3760 c3        1 MOL      0.030518
     34 C13         4.9610   -2.1370    0.0620 c         1 MOL      0.614982
     35 O7          5.4870   -1.0030    0.2290 o         1 MOL     -0.641209
     36 O8          4.7740   -3.0200    0.9130 o         1 MOL     -0.641209
     37 H13         7.2050   -3.2660   -1.2610 hn        1 MOL      0.142076
     38 H14         5.0790   -2.7550   -3.3800 h1        1 MOL      0.101405
     39 H15         3.8810   -3.4190   -1.3340 hc        1 MOL      0.025682
     40 H16         3.5660   -1.7620   -1.5440 hc        1 MOL      0.025682
     41 N4          5.6340   -0.0350   -3.0880 n         1 MOL     -0.370277
     42 C14         6.1110    1.3040   -3.0980 c3        1 MOL     -0.157058
     43 C15         5.7820    2.2180   -1.9350 c         1 MOL      0.749267
     44 O9          6.0320    1.8220   -0.7810 o         1 MOL     -0.702543
     45 H17         4.8010   -0.2210   -3.6280 hn        1 MOL      0.291736
     46 H18         5.7700    1.7880   -4.0200 h1        1 MOL      0.089342
     47 H19         7.1930    1.3520   -3.1940 h1        1 MOL      0.089342
     48 N5          5.3240    3.4170   -2.2390 n         1 MOL     -0.604035
     49 C16         5.1000    4.4510   -1.2680 c3        1 MOL      0.036055
     50 C17         3.5890    4.5570   -0.7710 c         1 MOL      0.728084
     51 O10         2.6260    4.3890   -1.5530 o         1 MOL     -0.510712
     52 C18         5.5060    5.8700   -1.8710 c3        1 MOL     -0.264801
     53 C19         6.9530    5.9530   -2.2550 c         1 MOL      0.724592
     54 N6          7.8720    5.9100   -1.3750 n         1 MOL     -0.705842
     55 O11         7.2380    6.1200   -3.3850 o         1 MOL     -0.599804
     56 H20         5.2590    3.7400   -3.1920 hn        1 MOL      0.330322
     57 H21         5.8160    4.2680   -0.4580 h1        1 MOL      0.053658
     58 H22         5.3100    6.6990   -1.1880 hc        1 MOL      0.104525
     59 H23         4.8880    5.9520   -2.7620 hc        1 MOL      0.104525
     60 H24         7.7480    5.7790   -0.3800 hn        1 MOL      0.321629
     61 H25         8.7920    5.8920   -1.8030 hn        1 MOL      0.321629
     62 N7          3.3520    4.9110    0.5000 n         1 MOL     -0.627451
     63 C20         2.0330    5.2180    1.0610 c3        1 MOL      0.095644
     64 C21         1.3130    6.4520    0.5170 c         1 MOL      0.641792
     65 O12         1.8390    7.0960   -0.3680 o         1 MOL     -0.583847
     66 H26         4.1510    5.1430    1.0820 hn        1 MOL      0.317781
     67 H27         2.1380    5.3680    2.1310 h1        1 MOL      0.029325
     68 H28         1.3950    4.3660    0.8500 h1        1 MOL      0.029325
     69 N8          0.1530    6.8330    0.9670 n         1 MOL     -0.578109
     70 C22        -0.8080    6.0200    1.8100 c3        1 MOL      0.008465
     71 C23        -1.5390    5.1030    0.8290 c         1 MOL      0.511544
     72 O13        -2.1180    5.6860   -0.1550 o         1 MOL     -0.512269
     73 C24        -1.8200    6.8220    2.5420 c3        1 MOL      0.339117
     74 C25        -1.1880    7.5760    3.6510 c3        1 MOL     -0.468120
     75 O14        -2.3900    7.9160    1.8070 oh        1 MOL     -0.537406
     76 H29        -0.1330    7.6710    0.4840 hn        1 MOL      0.342932
     77 H30        -0.3120    5.4330    2.5850 h1        1 MOL      0.059998
     78 H31        -2.5860    6.1530    2.9510 h1        1 MOL      0.060118
     79 H32        -3.0480    7.4950    1.2600 ho        1 MOL      0.348525
     80 H33        -2.0020    7.9610    4.2720 hc        1 MOL      0.118724
     81 H34        -0.6790    6.7970    4.2080 hc        1 MOL      0.118724
     82 H35        -0.5740    8.3720    3.2310 hc        1 MOL      0.118724
     83 N9         -1.6190    3.7590    1.1250 n         1 MOL     -0.350073
     84 C26        -2.5550    2.8210    0.5480 c3        1 MOL     -0.018991
     85 C27        -3.4080    2.1410    1.6230 c         1 MOL      0.332517
     86 O15        -2.9420    1.9930    2.7680 o         1 MOL     -0.550515
     87 C28        -1.8430    1.8580   -0.3960 c3        1 MOL      0.338792
     88 C29        -0.8550    0.8740    0.2440 c3        1 MOL      0.153498
     89 C30        -1.1370    2.6810   -1.5420 c3        1 MOL     -0.548011
     90 C31        -0.1470   -0.2150   -0.5100 c3        1 MOL     -0.397264
     91 H36        -1.2590    3.4690    2.0260 hn        1 MOL      0.196618
     92 H37        -3.2710    3.4230   -0.0130 h1        1 MOL      0.114885
     93 H38        -2.6760    1.3450   -0.8650 hc        1 MOL     -0.080652
     94 H39        -1.2290    0.4610    1.1830 hc        1 MOL     -0.018739
     95 H40        -0.0690    1.5120    0.6500 hc        1 MOL     -0.018739
     96 H41        -0.4000    3.3910   -1.1730 hc        1 MOL      0.132645
     97 H42        -0.7400    1.9610   -2.2580 hc        1 MOL      0.132645
     98 H43        -1.9150    3.3000   -1.9750 hc        1 MOL      0.132645
     99 H44        -0.9060   -0.9900   -0.6130 hc        1 MOL      0.093791
    100 H45         0.2610    0.1210   -1.4720 hc        1 MOL      0.093791
    101 H46         0.6130   -0.7010    0.1050 hc        1 MOL      0.093791
    102 N10        -4.6600    1.7510    1.4520 n         1 MOL     -0.216387
    103 C32        -5.4840    1.8940    0.2570 c3        1 MOL     -0.015966
    104 C33        -6.6110    0.8360    0.4090 c         1 MOL      0.416266
    105 O16        -6.6880    0.1290    1.4570 o         1 MOL     -0.501898
    106 C34        -6.0860    3.3110    0.0610 c3        1 MOL     -0.008660
    107 C35        -6.7210    3.9240    1.3430 c         1 MOL      0.662848
    108 O17        -6.2890    4.9390    1.9240 o         1 MOL     -0.686546
    109 O18        -7.7960    3.3510    1.7140 o         1 MOL     -0.686546
    110 H47        -5.0830    1.3180    2.2540 hn        1 MOL      0.278029
    111 H48        -4.9290    1.7490   -0.6670 h1        1 MOL      0.091241
    112 H49        -6.8220    3.4110   -0.7370 hc        1 MOL     -0.033581
    113 H50        -5.2980    3.9940   -0.2740 hc        1 MOL     -0.033581
    114 N11        -7.4300    0.6460   -0.6450 n         1 MOL     -0.655279
    115 C36        -8.6130   -0.2140   -0.5910 c3        1 MOL      0.736418
    116 C37        -8.6900   -1.0720   -1.8230 c         1 MOL     -0.077594
    117 O19        -8.3750   -0.6170   -2.9040 o         1 MOL     -0.458047
    118 C38        -9.7750    0.8000   -0.6080 c3        1 MOL     -0.482022
    119 C39       -11.1420    0.0850   -0.6570 ca        1 MOL      0.217831
    120 C40       -11.8730   -0.2690   -1.8790 ca        1 MOL     -0.260809
    121 C41       -11.7420   -0.2990    0.5580 ca        1 MOL     -0.260809
    122 C42       -13.0980   -0.9880   -1.8360 ca        1 MOL     -0.075602
    123 C43       -12.9490   -1.0510    0.5190 ca        1 MOL     -0.075602
    124 C44       -13.6390   -1.3520   -0.6050 ca        1 MOL     -0.146991
    125 H51        -7.2530    1.2620   -1.4310 hn        1 MOL      0.366690
    126 H52        -8.7130   -0.7620    0.3490 h1        1 MOL     -0.041398
    127 H53        -9.6880    1.3940   -1.5140 hc        1 MOL      0.156358
    128 H54        -9.6830    1.4180    0.2820 hc        1 MOL      0.156358
    129 H55       -11.4730   -0.0320   -2.8520 ha        1 MOL      0.154829
    130 H56       -11.2450   -0.0870    1.4950 ha        1 MOL      0.154829
    131 H57       -13.5550   -1.3320   -2.7520 ha        1 MOL      0.086046
    132 H58       -13.4130   -1.3750    1.4380 ha        1 MOL      0.086046
    133 H59       -14.5550   -1.9220   -0.6830 ha        1 MOL      0.090432
    134 N12        -8.9770   -2.3350   -1.7090 n         1 MOL      0.246076
    135 C45        -9.3280   -3.0730   -0.5060 c3        1 MOL      0.122107
    136 C46        -8.1140   -3.3800    0.3850 c         1 MOL      0.317736
    137 O20        -8.2880   -3.4100    1.5970 o         1 MOL     -0.581033
    138 C47        -9.8510   -4.4590   -0.8860 c3        1 MOL     -0.136701
    139 C48        -9.7880   -4.4420   -2.4310 c3        1 MOL     -0.082147
    140 C49        -9.0900   -3.2200   -2.8770 c3        1 MOL      0.042947
    141 H60       -10.1000   -2.5620    0.0690 h1        1 MOL      0.024051
    142 H61        -9.2420   -5.2970   -0.5380 hc        1 MOL      0.050142
    143 H62       -10.8920   -4.5160   -0.5560 hc        1 MOL      0.050142
    144 H63        -9.2970   -5.3310   -2.8020 hc        1 MOL      0.015102
    145 H64       -10.8190   -4.4880   -2.8050 hc        1 MOL      0.015102
    146 H65        -8.2110   -3.3520   -3.5000 h1        1 MOL      0.016150
    147 H66        -9.8170   -2.7310   -3.5190 h1        1 MOL      0.016150
    148 N13        -6.8860   -3.6490   -0.0590 n         1 MOL     -0.122761
    149 C50        -5.7310   -3.8030    0.7910 c3        1 MOL      0.043088
    150 C51        -5.7400   -5.1550    1.5450 c         1 MOL      0.394327
    151 O21        -5.5030   -6.1850    0.9980 o         1 MOL     -0.571521
    152 C52        -4.4530   -3.5480   -0.0050 c3        1 MOL      0.147677
    153 C53        -4.3400   -2.1600   -0.5760 c3        1 MOL      0.047347
    154 C54        -5.1310   -1.8300   -1.8320 c         1 MOL      0.580036
    155 O22        -4.9380   -0.6940   -2.3480 o         1 MOL     -0.644685
    156 O23        -5.8850   -2.6790   -2.3350 o         1 MOL     -0.644685
    157 H67        -6.6530   -3.5370   -1.0370 hn        1 MOL      0.136847
    158 H68        -5.7120   -3.0160    1.5480 h1        1 MOL      0.065855
    159 H69        -4.3340   -4.3440   -0.7420 hc        1 MOL     -0.048608
    160 H70        -3.6180   -3.6470    0.6910 hc        1 MOL     -0.048608
    161 H71        -3.2860   -2.0180   -0.8370 hc        1 MOL     -0.044234
    162 H72        -4.3630   -1.4270    0.2240 hc        1 MOL     -0.044234
    163 N14        -5.9710   -5.2450    2.8370 n         1 MOL     -0.229616
    164 C55        -6.3420   -4.3140    3.9070 c3        1 MOL     -0.177901
    165 H73        -6.7510   -3.4030    3.4700 h1        1 MOL      0.079761
    166 H74        -7.0920   -4.7770    4.5490 h1        1 MOL      0.079761
    167 H75        -5.4600   -4.0680    4.4990 h1        1 MOL      0.079761
    168 H76        -5.8680   -6.2130    3.1410 hn        1 MOL      0.215117
    169 Ca1         7.9080    0.0780    0.3190 Ca        1 MOL      1.771201
    170 O24         8.8250    1.9630   -1.4190 oh        1 MOL     -0.802461
    171 H77         9.6700    1.6300   -1.7200 ho        1 MOL      0.393256
    172 H78         8.5350    2.5300   -2.1380 ho        1 MOL      0.393256
    173 O25         9.2280    1.8380    1.9600 oh        1 MOL     -0.802461
    174 H79         9.0660    1.8720    2.8960 ho        1 MOL      0.393256
    175 H80         9.8910    2.5120    1.8040 ho        1 MOL      0.393256
    176 O26         6.1890    0.6400    2.6630 oh        1 MOL     -0.802461
    177 H81         5.6570    1.3720    2.9660 ho        1 MOL      0.393256
    178 H82         5.5960   -0.1140    2.7160 ho        1 MOL      0.393256
    179 O27        10.6890   -0.0500    0.2300 oh        1 MOL     -0.802461
    180 H83        11.4660    0.3660   -0.1500 ho        1 MOL      0.393256
    181 H84        11.0300   -0.6970    0.8460 ho        1 MOL      0.393256
@<TRIPOS>BOND
     1    1    2 1   
     2    1    4 1   
     3    1    5 1   
     4    1    6 1   
     5    2    3 2   
     6    2    7 1   
     7    7    8 1   
     8    7   15 1   
     9    8    9 1   
    10    8   11 1   
    11    8   16 1   
    12    9   10 2   
    13    9   19 1   
    14   11   12 1   
    15   11   17 1   
    16   11   18 1   
    17   12   13 1   
    18   12   14 1   
    19   19   20 1   
    20   19   24 1   
    21   20   21 1   
    22   20   23 1   
    23   20   25 1   
    24   21   22 2   
    25   21   29 1   
    26   23   26 1   
    27   23   27 1   
    28   23   28 1   
    29   29   30 1   
    30   29   37 1   
    31   30   31 1   
    32   30   33 1   
    33   30   38 1   
    34   31   32 2   
    35   31   41 1   
    36   33   34 1   
    37   33   39 1   
    38   33   40 1   
    39   34   35 1   
    40   34   36 1   
    41   41   42 1   
    42   41   45 1   
    43   42   43 1   
    44   42   46 1   
    45   42   47 1   
    46   43   44 2   
    47   43   48 1   
    48   48   49 1   
    49   48   56 1   
    50   49   50 1   
    51   49   52 1   
    52   49   57 1   
    53   50   51 2   
    54   50   62 1   
    55   52   53 1   
    56   52   58 1   
    57   52   59 1   
    58   53   54 1   
    59   53   55 2   
    60   54   60 1   
    61   54   61 1   
    62   62   63 1   
    63   62   66 1   
    64   63   64 1   
    65   63   67 1   
    66   63   68 1   
    67   64   65 2   
    68   64   69 1   
    69   69   70 1   
    70   69   76 1   
    71   70   71 1   
    72   70   73 1   
    73   70   77 1   
    74   71   72 2   
    75   71   83 1   
    76   73   74 1   
    77   73   75 1   
    78   73   78 1   
    79   74   80 1   
    80   74   81 1   
    81   74   82 1   
    82   75   79 1   
    83   83   84 1   
    84   83   91 1   
    85   84   85 1   
    86   84   87 1   
    87   84   92 1   
    88   85   86 2   
    89   85  102 1   
    90   87   88 1   
    91   87   89 1   
    92   87   93 1   
    93   88   90 1   
    94   88   94 1   
    95   88   95 1   
    96   89   96 1   
    97   89   97 1   
    98   89   98 1   
    99   90   99 1   
   100   90  100 1   
   101   90  101 1   
   102  102  103 1   
   103  102  110 1   
   104  103  104 1   
   105  103  106 1   
   106  103  111 1   
   107  104  105 2   
   108  104  114 1   
   109  106  107 1   
   110  106  112 1   
   111  106  113 1   
   112  107  108 1   
   113  107  109 1   
   114  114  115 1   
   115  114  125 1   
   116  115  116 1   
   117  115  118 1   
   118  115  126 1   
   119  116  117 2   
   120  116  134 1   
   121  118  119 1   
   122  118  127 1   
   123  118  128 1   
   124  119  120 ar  
   125  119  121 ar  
   126  120  122 ar  
   127  120  129 1   
   128  121  123 ar  
   129  121  130 1   
   130  122  124 ar  
   131  122  131 1   
   132  123  124 ar  
   133  123  132 1   
   134  124  133 1   
   135  134  135 1   
   136  134  140 1   
   137  135  136 1   
   138  135  138 1   
   139  135  141 1   
   140  136  137 2   
   141  136  148 1   
   142  138  139 1   
   143  138  142 1   
   144  138  143 1   
   145  139  140 1   
   146  139  144 1   
   147  139  145 1   
   148  140  146 1   
   149  140  147 1   
   150  148  149 1   
   151  148  157 1   
   152  149  150 1   
   153  149  152 1   
   154  149  158 1   
   155  150  151 2   
   156  150  163 1   
   157  152  153 1   
   158  152  159 1   
   159  152  160 1   
   160  153  154 1   
   161  153  161 1   
   162  153  162 1   
   163  154  155 1   
   164  154  156 1   
   165  163  164 1   
   166  163  168 1   
   167  164  165 1   
   168  164  166 1   
   169  164  167 1   
   170  170  171 1   
   171  170  172 1   
   172  173  174 1   
   173  173  175 1   
   174  176  177 1   
   175  176  178 1   
   176  179  180 1   
   177  179  181 1   
@<TRIPOS>SUBSTRUCTURE
     1 MOL         1 TEMP              0 ****  ****    0 ROOT
