@<TRIPOS>MOLECULE
MOL
  181   177     1     0     0
SMALL
resp


@<TRIPOS>ATOM
      1 C1         -2.3260   -6.2770   -2.4920 c3        1 MOL     -0.432057
      2 C2         -3.6710   -6.2460   -1.7960 c         1 MOL      0.688418
      3 O1         -3.8680   -7.0370   -0.8470 o         1 MOL     -0.593575
      4 H1         -2.4350   -5.9030   -3.5110 hc        1 MOL      0.108900
      5 H2         -1.6200   -5.6480   -1.9500 hc        1 MOL      0.108900
      6 H3         -1.9540   -7.3020   -2.5190 hc        1 MOL      0.108900
      7 N1         -4.6750   -5.4850   -2.2480 n         1 MOL     -0.564016
      8 C3         -5.9650   -5.3170   -1.6580 c3        1 MOL      0.271411
      9 C4         -5.8500   -4.2030   -0.5830 c         1 MOL      0.629881
     10 O2         -5.7160   -3.0640   -1.0050 o         1 MOL     -0.566210
     11 C5         -7.0400   -5.0270   -2.7990 c3        1 MOL     -0.309318
     12 C6         -8.4160   -4.8260   -2.2100 c         1 MOL      0.773441
     13 O3         -8.6990   -5.4110   -1.1290 o         1 MOL     -0.748241
     14 O4         -9.2770   -4.0960   -2.7580 o         1 MOL     -0.748241
     15 H4         -4.5150   -4.8430   -3.0110 hn        1 MOL      0.285288
     16 H5         -6.3100   -6.2150   -1.1460 h1        1 MOL      0.003261
     17 H6         -7.0630   -5.8680   -3.4980 hc        1 MOL      0.037875
     18 H7         -6.8500   -4.1060   -3.3560 hc        1 MOL      0.037875
     19 N2         -5.7320   -4.5370    0.7080 n         1 MOL     -0.794870
     20 C7         -5.5800   -3.5590    1.8160 c3        1 MOL      0.722267
     21 C8         -4.1710   -3.6020    2.4420 c         1 MOL      0.313829
     22 O5         -3.4590   -4.5870    2.2250 o         1 MOL     -0.532534
     23 C9         -6.6330   -3.9550    2.8360 c3        1 MOL     -0.211815
     24 H8         -5.6200   -5.5230    0.9040 hn        1 MOL      0.352529
     25 H9         -5.8470   -2.5670    1.4620 h1        1 MOL     -0.044440
     26 H10        -6.5890   -3.3360    3.7360 hc        1 MOL      0.034021
     27 H11        -7.6610   -3.7840    2.5490 hc        1 MOL      0.034021
     28 H12        -6.5670   -5.0080    3.0950 hc        1 MOL      0.034021
     29 N3         -3.6950   -2.6200    3.2040 n         1 MOL     -0.477488
     30 C10        -4.2970   -1.3380    3.6800 c3        1 MOL      0.021509
     31 C11        -4.2690   -0.2580    2.5650 c         1 MOL      0.079847
     32 O6         -3.3970   -0.2600    1.6840 o         1 MOL     -0.330882
     33 C12        -3.6610   -0.9770    5.0160 c3        1 MOL     -0.081198
     34 C13        -2.1580   -0.5920    4.9880 c         1 MOL      0.634737
     35 O7         -1.3660   -0.6700    4.0040 o         1 MOL     -0.678877
     36 O8         -1.7590   -0.3070    6.1440 o         1 MOL     -0.678877
     37 H13        -2.7470   -2.8080    3.4910 hn        1 MOL      0.341727
     38 H14        -5.3570   -1.4950    3.8870 h1        1 MOL      0.040637
     39 H15        -3.7000   -1.8100    5.7210 hc        1 MOL      0.037585
     40 H16        -4.2660   -0.1430    5.3820 hc        1 MOL      0.037585
     41 N4         -5.1970    0.6660    2.6280 n         1 MOL     -0.084353
     42 C14        -5.2940    1.7640    1.6870 c3        1 MOL     -0.416926
     43 C15        -5.7520    1.2090    0.3510 c         1 MOL      0.580556
     44 O9         -5.9060    0.0210    0.0680 o         1 MOL     -0.463042
     45 H17        -5.8590    0.5410    3.3870 hn        1 MOL      0.249823
     46 H18        -4.3970    2.3700    1.5370 h1        1 MOL      0.155079
     47 H19        -6.1310    2.3960    1.9880 h1        1 MOL      0.155079
     48 N5         -6.0800    2.0720   -0.5540 n         1 MOL     -0.476470
     49 C16        -6.3290    3.5600   -0.5040 c3        1 MOL      0.314185
     50 C17        -5.3200    4.3580   -1.3820 c         1 MOL      0.586454
     51 O10        -5.4770    5.5680   -1.4870 o         1 MOL     -0.554387
     52 C18        -7.8150    3.9740   -0.8470 c3        1 MOL     -0.368792
     53 C19        -8.2650    3.7010   -2.2170 c         1 MOL      0.704481
     54 N6         -9.3510    4.2620   -2.6270 n         1 MOL     -0.731325
     55 O11        -7.6550    2.9710   -3.0080 o         1 MOL     -0.540783
     56 H20        -6.3130    1.6760   -1.4510 hn        1 MOL      0.267733
     57 H21        -6.2240    4.0280    0.4750 h1        1 MOL     -0.004314
     58 H22        -7.8150    5.0530   -0.7520 hc        1 MOL      0.094897
     59 H23        -8.4490    3.4430   -0.1440 hc        1 MOL      0.094897
     60 H24        -9.8850    4.7520   -1.9150 hn        1 MOL      0.345437
     61 H25        -9.8200    3.8400   -3.4060 hn        1 MOL      0.345437
     62 N7         -4.3420    3.7940   -2.0780 n         1 MOL     -0.625131
     63 C20        -3.5040    4.4410   -3.1400 c3        1 MOL      0.099257
     64 C21        -2.1720    5.0440   -2.6650 c         1 MOL      0.271564
     65 O12        -1.3860    5.5080   -3.5070 o         1 MOL     -0.487684
     66 H26        -4.4090    2.7900   -2.1680 hn        1 MOL      0.312591
     67 H27        -4.0220    5.0420   -3.8940 h1        1 MOL      0.099197
     68 H28        -3.2280    3.6750   -3.8600 h1        1 MOL      0.099197
     69 N8         -1.8140    4.8960   -1.3310 n         1 MOL     -0.145104
     70 C22        -0.4920    5.2800   -0.8720 c3        1 MOL     -0.031169
     71 C23         0.5410    4.1460   -0.5690 c         1 MOL      0.380699
     72 O13         0.1790    3.0330   -0.1950 o         1 MOL     -0.597163
     73 C24        -0.5970    6.2590    0.3190 c3        1 MOL      0.625520
     74 C25        -1.4310    7.5520    0.0180 c3        1 MOL     -0.629257
     75 O14        -1.3310    5.5620    1.2840 oh        1 MOL     -0.717177
     76 H29        -2.5600    4.6310   -0.7050 hn        1 MOL      0.228847
     77 H30        -0.0610    5.9420   -1.6300 h1        1 MOL      0.011632
     78 H31         0.4100    6.4450    0.6710 h1        1 MOL     -0.061727
     79 H32        -0.6320    5.3090    1.8880 ho        1 MOL      0.415108
     80 H33        -1.9260    7.4250   -0.9420 hc        1 MOL      0.158260
     81 H34        -2.2800    7.7540    0.6750 hc        1 MOL      0.158260
     82 H35        -0.7100    8.3720    0.1150 hc        1 MOL      0.158260
     83 N9          1.8270    4.4110   -0.8000 n         1 MOL     -0.067655
     84 C26         2.9250    3.3520   -0.7910 c3        1 MOL     -0.293928
     85 C27         3.6450    3.3620    0.5880 c         1 MOL      0.315061
     86 O15         3.9320    4.4410    1.1180 o         1 MOL     -0.508619
     87 C28         3.7670    3.5130   -2.0770 c3        1 MOL     -0.004079
     88 C29         4.9940    2.5340   -1.9760 c3        1 MOL      0.340532
     89 C30         2.9570    3.4160   -3.4130 c3        1 MOL     -0.189883
     90 C31         5.9450    2.5220   -3.1320 c3        1 MOL     -0.158150
     91 H36         2.1320    5.3150   -1.1180 hn        1 MOL      0.193455
     92 H37         2.5110    2.3580   -0.9610 h1        1 MOL      0.272016
     93 H38         4.2050    4.5080   -2.1390 hc        1 MOL      0.030113
     94 H39         4.6410    1.4990   -1.9440 hc        1 MOL     -0.078056
     95 H40         5.6590    2.6430   -1.1190 hc        1 MOL     -0.078056
     96 H41         2.3760    2.5040   -3.5120 hc        1 MOL      0.048977
     97 H42         2.2320    4.2270   -3.4490 hc        1 MOL      0.048977
     98 H43         3.5190    3.5290   -4.3420 hc        1 MOL      0.048977
     99 H44         6.7890    1.9230   -2.7770 hc        1 MOL      0.005670
    100 H45         5.4730    2.0900   -4.0130 hc        1 MOL      0.005670
    101 H46         6.2450    3.5660   -3.2330 hc        1 MOL      0.005670
    102 N10         3.6790    2.2340    1.2780 n         1 MOL     -0.041428
    103 C32         4.4050    1.9080    2.4930 c3        1 MOL     -0.050081
    104 C33         5.5320    0.8020    2.3310 c         1 MOL      0.262548
    105 O16         6.3660    0.5910    3.2420 o         1 MOL     -0.516614
    106 C34         3.4960    1.3360    3.6030 c3        1 MOL      0.057545
    107 C35         2.2550    2.2500    3.7630 c         1 MOL      0.556281
    108 O17         1.1340    1.7390    3.4730 o         1 MOL     -0.671310
    109 O18         2.4160    3.4250    4.1370 o         1 MOL     -0.671310
    110 H47         3.2520    1.4540    0.7900 hn        1 MOL      0.192877
    111 H48         4.8680    2.8460    2.8170 h1        1 MOL      0.110082
    112 H49         3.9900    1.1950    4.5650 hc        1 MOL     -0.008246
    113 H50         3.1640    0.3620    3.2280 hc        1 MOL     -0.008246
    114 N11         5.7410    0.1280    1.1330 n         1 MOL     -0.315968
    115 C36         6.7840   -0.7870    0.7330 c3        1 MOL      0.469740
    116 C37         6.1480   -2.0080   -0.0610 c         1 MOL      0.121136
    117 O19         6.4410   -2.1980   -1.2420 o         1 MOL     -0.470944
    118 C38         7.7480    0.1000   -0.0530 c3        1 MOL     -0.495741
    119 C39         9.2140   -0.5180   -0.0440 ca        1 MOL      0.234562
    120 C40         9.7760   -0.9630    1.1820 ca        1 MOL     -0.239458
    121 C41         9.9090   -0.5110   -1.2720 ca        1 MOL     -0.239458
    122 C42        11.1010   -1.4190    1.1110 ca        1 MOL     -0.095827
    123 C43        11.2780   -1.0170   -1.2400 ca        1 MOL     -0.095827
    124 C44        11.8740   -1.4860   -0.0740 ca        1 MOL     -0.148782
    125 H51         5.0510    0.3570    0.4240 hn        1 MOL      0.262034
    126 H52         7.3220   -1.1310    1.6240 h1        1 MOL     -0.005431
    127 H53         7.8450    1.0140    0.5450 hc        1 MOL      0.169039
    128 H54         7.3210    0.2520   -1.0410 hc        1 MOL      0.169039
    129 H55         9.2710   -0.9650    2.1380 ha        1 MOL      0.161050
    130 H56         9.4370   -0.2490   -2.1990 ha        1 MOL      0.161050
    131 H57        11.5840   -1.7240    2.0360 ha        1 MOL      0.095157
    132 H58        11.7850   -1.1780   -2.1750 ha        1 MOL      0.095157
    133 H59        12.8870   -1.8740   -0.0390 ha        1 MOL      0.110079
    134 N12         5.2190   -2.7960    0.5100 n         1 MOL      0.060066
    135 C45         4.6410   -4.0030   -0.1640 c3        1 MOL     -0.047030
    136 C46         3.9550   -3.8090   -1.4810 c         1 MOL      0.313608
    137 O20         3.8410   -4.8090   -2.1870 o         1 MOL     -0.500078
    138 C47         3.7510   -4.7120    0.9110 c3        1 MOL     -0.150464
    139 C48         4.4220   -4.2110    2.2360 c3        1 MOL     -0.138939
    140 C49         4.8870   -2.7910    1.9070 c3        1 MOL      0.098103
    141 H60         5.5630   -4.5600   -0.3430 h1        1 MOL      0.098636
    142 H61         2.7280   -4.3380    0.8370 hc        1 MOL      0.095194
    143 H62         3.7990   -5.7870    0.7420 hc        1 MOL      0.095194
    144 H63         3.7530   -4.1350    3.0980 hc        1 MOL      0.053298
    145 H64         5.2520   -4.8670    2.4830 hc        1 MOL      0.053298
    146 H65         4.1430   -2.0440    2.1750 h1        1 MOL     -0.008384
    147 H66         5.8150   -2.5410    2.4010 h1        1 MOL     -0.008384
    148 N13         3.5990   -2.5560   -1.7850 n         1 MOL     -0.073575
    149 C50         2.9440   -2.2340   -3.0070 c3        1 MOL     -0.056800
    150 C51         3.9570   -2.1520   -4.2310 c         1 MOL      0.418290
    151 O21         3.6620   -2.5980   -5.3400 o         1 MOL     -0.542002
    152 C52         2.1550   -0.9490   -2.8770 c3        1 MOL      0.247008
    153 C53         1.4000   -0.6110   -1.5650 c3        1 MOL     -0.187614
    154 C54         2.2210   -0.0440   -0.3890 c         1 MOL      0.600847
    155 O22         1.5840    0.4220    0.5950 o         1 MOL     -0.698441
    156 O23         3.4650   -0.1480   -0.4330 o         1 MOL     -0.698441
    157 H67         3.8000   -1.8030   -1.1400 hn        1 MOL      0.159521
    158 H68         2.2510   -3.0170   -3.2970 h1        1 MOL      0.080087
    159 H69         1.3930   -1.0790   -3.6480 hc        1 MOL     -0.079682
    160 H70         2.8110   -0.0800   -2.9710 hc        1 MOL     -0.079682
    161 H71         0.9570   -1.5570   -1.2340 hc        1 MOL      0.027213
    162 H72         0.6340    0.1360   -1.7240 hc        1 MOL      0.027213
    163 N14         5.1650   -1.7300   -3.9200 n         1 MOL     -0.114113
    164 C55         6.2850   -1.9230   -4.7870 c3        1 MOL     -0.303383
    165 H73         6.0600   -1.5050   -5.7690 h1        1 MOL      0.110765
    166 H74         7.1570   -1.4200   -4.3700 h1        1 MOL      0.110765
    167 H75         6.4900   -2.9880   -4.8850 h1        1 MOL      0.110765
    168 H76         5.2320   -1.4380   -2.9610 hn        1 MOL      0.192268
    169 Ca1        -0.5960    0.5610    1.8840 Ca        1 MOL      1.757188
    170 O24        -1.0840   -1.9550    0.8480 oh        1 MOL     -0.866037
    171 H77        -1.0060   -2.7270    1.4210 ho        1 MOL      0.428621
    172 H78        -1.7840   -2.1700    0.2370 ho        1 MOL      0.428621
    173 O25        -1.8430    1.2260   -0.4530 oh        1 MOL     -0.866037
    174 H79        -1.9960    0.7360   -1.2660 ho        1 MOL      0.428621
    175 H80        -1.2230    1.9090   -0.7110 ho        1 MOL      0.428621
    176 O26         1.2030   -1.2110    2.7990 oh        1 MOL     -0.866037
    177 H81         1.4600   -1.5980    3.6240 ho        1 MOL      0.428621
    178 H82         2.0250   -0.9240    2.3920 ho        1 MOL      0.428621
    179 O27        -2.2840    2.9170    2.7290 oh        1 MOL     -0.866037
    180 H83        -2.8040    3.5440    2.2320 ho        1 MOL      0.428621
    181 H84        -2.2880    3.2540    3.6220 ho        1 MOL      0.428621
@<TRIPOS>BOND
     1    1    2 1   
     2    1    4 1   
     3    1    5 1   
     4    1    6 1   
     5    2    3 2   
     6    2    7 1   
     7    7    8 1   
     8    7   15 1   
     9    8    9 1   
    10    8   11 1   
    11    8   16 1   
    12    9   10 2   
    13    9   19 1   
    14   11   12 1   
    15   11   17 1   
    16   11   18 1   
    17   12   13 1   
    18   12   14 1   
    19   19   20 1   
    20   19   24 1   
    21   20   21 1   
    22   20   23 1   
    23   20   25 1   
    24   21   22 2   
    25   21   29 1   
    26   23   26 1   
    27   23   27 1   
    28   23   28 1   
    29   29   30 1   
    30   29   37 1   
    31   30   31 1   
    32   30   33 1   
    33   30   38 1   
    34   31   32 2   
    35   31   41 1   
    36   33   34 1   
    37   33   39 1   
    38   33   40 1   
    39   34   35 1   
    40   34   36 1   
    41   41   42 1   
    42   41   45 1   
    43   42   43 1   
    44   42   46 1   
    45   42   47 1   
    46   43   44 2   
    47   43   48 1   
    48   48   49 1   
    49   48   56 1   
    50   49   50 1   
    51   49   52 1   
    52   49   57 1   
    53   50   51 2   
    54   50   62 1   
    55   52   53 1   
    56   52   58 1   
    57   52   59 1   
    58   53   54 1   
    59   53   55 2   
    60   54   60 1   
    61   54   61 1   
    62   62   63 1   
    63   62   66 1   
    64   63   64 1   
    65   63   67 1   
    66   63   68 1   
    67   64   65 2   
    68   64   69 1   
    69   69   70 1   
    70   69   76 1   
    71   70   71 1   
    72   70   73 1   
    73   70   77 1   
    74   71   72 2   
    75   71   83 1   
    76   73   74 1   
    77   73   75 1   
    78   73   78 1   
    79   74   80 1   
    80   74   81 1   
    81   74   82 1   
    82   75   79 1   
    83   83   84 1   
    84   83   91 1   
    85   84   85 1   
    86   84   87 1   
    87   84   92 1   
    88   85   86 2   
    89   85  102 1   
    90   87   88 1   
    91   87   89 1   
    92   87   93 1   
    93   88   90 1   
    94   88   94 1   
    95   88   95 1   
    96   89   96 1   
    97   89   97 1   
    98   89   98 1   
    99   90   99 1   
   100   90  100 1   
   101   90  101 1   
   102  102  103 1   
   103  102  110 1   
   104  103  104 1   
   105  103  106 1   
   106  103  111 1   
   107  104  105 2   
   108  104  114 1   
   109  106  107 1   
   110  106  112 1   
   111  106  113 1   
   112  107  108 1   
   113  107  109 1   
   114  114  115 1   
   115  114  125 1   
   116  115  116 1   
   117  115  118 1   
   118  115  126 1   
   119  116  117 2   
   120  116  134 1   
   121  118  119 1   
   122  118  127 1   
   123  118  128 1   
   124  119  120 ar  
   125  119  121 ar  
   126  120  122 ar  
   127  120  129 1   
   128  121  123 ar  
   129  121  130 1   
   130  122  124 ar  
   131  122  131 1   
   132  123  124 ar  
   133  123  132 1   
   134  124  133 1   
   135  134  135 1   
   136  134  140 1   
   137  135  136 1   
   138  135  138 1   
   139  135  141 1   
   140  136  137 2   
   141  136  148 1   
   142  138  139 1   
   143  138  142 1   
   144  138  143 1   
   145  139  140 1   
   146  139  144 1   
   147  139  145 1   
   148  140  146 1   
   149  140  147 1   
   150  148  149 1   
   151  148  157 1   
   152  149  150 1   
   153  149  152 1   
   154  149  158 1   
   155  150  151 2   
   156  150  163 1   
   157  152  153 1   
   158  152  159 1   
   159  152  160 1   
   160  153  154 1   
   161  153  161 1   
   162  153  162 1   
   163  154  155 1   
   164  154  156 1   
   165  163  164 1   
   166  163  168 1   
   167  164  165 1   
   168  164  166 1   
   169  164  167 1   
   170  170  171 1   
   171  170  172 1   
   172  173  174 1   
   173  173  175 1   
   174  176  177 1   
   175  176  178 1   
   176  179  180 1   
   177  179  181 1   
@<TRIPOS>SUBSTRUCTURE
     1 MOL         1 TEMP              0 ****  ****    0 ROOT
