@<TRIPOS>MOLECULE
MOL
  181   177     1     0     0
SMALL
resp


@<TRIPOS>ATOM
      1 C1          0.4490    6.8570   -2.3670 c3        1 MOL     -0.423530
      2 C2          1.7630    6.6890   -1.4770 c         1 MOL      0.687447
      3 O1          1.7670    7.1600   -0.3050 o         1 MOL     -0.582896
      4 H1          0.2690    7.9160   -2.5520 hc        1 MOL      0.102971
      5 H2          0.5850    6.3420   -3.3180 hc        1 MOL      0.102971
      6 H3         -0.4050    6.4310   -1.8410 hc        1 MOL      0.102971
      7 N1          2.8730    6.1910   -2.0270 n         1 MOL     -0.620645
      8 C3          4.2240    6.1940   -1.3090 c3        1 MOL      0.218323
      9 C4          4.3500    5.0870   -0.2740 c         1 MOL      0.692577
     10 O2          3.7140    4.0680   -0.4610 o         1 MOL     -0.623572
     11 C5          5.2670    6.0350   -2.4430 c3        1 MOL     -0.156267
     12 C6          6.6510    5.8740   -1.8110 c         1 MOL      0.716900
     13 O3          7.4100    4.9850   -2.2290 o         1 MOL     -0.720384
     14 O4          6.9420    6.7520   -0.9720 o         1 MOL     -0.720384
     15 H4          2.7420    5.6210   -2.8480 hn        1 MOL      0.318530
     16 H5          4.5120    7.0930   -0.7660 h1        1 MOL      0.004448
     17 H6          5.2980    6.9030   -3.0990 hc        1 MOL      0.002289
     18 H7          4.9300    5.1700   -3.0240 hc        1 MOL      0.002289
     19 N2          5.1380    5.2410    0.7460 n         1 MOL     -0.677947
     20 C7          5.2370    4.3830    1.9710 c3        1 MOL      0.486675
     21 C8          3.8730    3.9530    2.4750 c         1 MOL      0.389596
     22 O5          2.9090    4.7540    2.4970 o         1 MOL     -0.511539
     23 C9          6.0280    5.1450    3.0400 c3        1 MOL     -0.444914
     24 H8          5.6460    6.1100    0.7140 hn        1 MOL      0.311472
     25 H9          5.7950    3.4960    1.6880 h1        1 MOL      0.020457
     26 H10         6.2080    4.4390    3.8590 hc        1 MOL      0.111171
     27 H11         6.9700    5.4700    2.5860 hc        1 MOL      0.111171
     28 H12         5.4020    5.9800    3.3310 hc        1 MOL      0.111171
     29 N3          3.7100    2.6770    2.9040 n         1 MOL     -0.479909
     30 C10         4.6860    1.5500    3.2150 c3        1 MOL      0.262287
     31 C11         4.6500    0.5250    2.1320 c         1 MOL      0.331258
     32 O6          3.7340    0.4900    1.2950 o         1 MOL     -0.405655
     33 C12         4.3080    0.8580    4.5080 c3        1 MOL     -0.295461
     34 C13         2.8410    0.3470    4.6660 c         1 MOL      0.728965
     35 O7          2.3520   -0.0780    5.7620 o         1 MOL     -0.691446
     36 O8          2.0560    0.3910    3.7190 o         1 MOL     -0.691446
     37 H13         2.7790    2.5020    3.2420 hn        1 MOL      0.281281
     38 H14         5.6930    1.9810    3.1850 h1        1 MOL     -0.016798
     39 H15         4.5930    1.4390    5.3730 hc        1 MOL      0.045457
     40 H16         4.8940   -0.0380    4.6800 hc        1 MOL      0.045457
     41 N4          5.5070   -0.4450    2.1270 n         1 MOL     -0.331279
     42 C14         5.7140   -1.3890    1.0580 c3        1 MOL     -0.048746
     43 C15         6.8840   -1.0510    0.1050 c         1 MOL      0.633732
     44 O9          7.3760    0.0370    0.1330 o         1 MOL     -0.507143
     45 H17         6.1750   -0.4170    2.8890 hn        1 MOL      0.254127
     46 H18         4.8050   -1.4240    0.4550 h1        1 MOL      0.062054
     47 H19         5.9920   -2.2980    1.5920 h1        1 MOL      0.062054
     48 N5          7.3300   -1.8700   -0.8460 n         1 MOL     -0.580870
     49 C16         6.7440   -3.1650   -1.0960 c3        1 MOL      0.179691
     50 C17         5.5590   -2.9790   -2.1290 c         1 MOL      0.477618
     51 O10         5.2580   -1.8880   -2.7030 o         1 MOL     -0.432639
     52 C18         7.8520   -4.1720   -1.4740 c3        1 MOL     -0.262378
     53 C19         8.7320   -3.9010   -2.7260 c         1 MOL      0.682861
     54 N6          9.3750   -4.9010   -3.2960 n         1 MOL     -0.797119
     55 O11         8.9280   -2.7360   -3.1380 o         1 MOL     -0.499662
     56 H20         8.1280   -1.6340   -1.4240 hn        1 MOL      0.328156
     57 H21         6.4030   -3.6000   -0.1600 h1        1 MOL      0.017178
     58 H22         7.2690   -5.0700   -1.6660 hc        1 MOL      0.049610
     59 H23         8.5590   -4.2500   -0.6500 hc        1 MOL      0.049610
     60 H24         9.2520   -5.7990   -2.8570 hn        1 MOL      0.369236
     61 H25        10.0140   -4.8170   -4.0790 hn        1 MOL      0.369236
     62 N7          4.7790   -4.0930   -2.2710 n         1 MOL     -0.575340
     63 C20         3.5710   -4.2600   -3.1740 c3        1 MOL     -0.062486
     64 C21         2.2860   -4.6590   -2.4240 c         1 MOL      0.307987
     65 O12         1.2120   -4.7100   -3.0830 o         1 MOL     -0.494868
     66 H26         5.1490   -4.9350   -1.8540 hn        1 MOL      0.364034
     67 H27         3.8780   -4.9670   -3.9540 h1        1 MOL      0.135744
     68 H28         3.3380   -3.3600   -3.7360 h1        1 MOL      0.135744
     69 N8          2.2960   -5.1480   -1.1380 n         1 MOL     -0.154979
     70 C22         1.0730   -5.4180   -0.3810 c3        1 MOL     -0.151662
     71 C23         0.0530   -4.2310   -0.2940 c         1 MOL      0.900255
     72 O13         0.4390   -3.2180    0.2930 o         1 MOL     -0.684534
     73 C24         1.4480   -5.8660    1.1030 c3        1 MOL      0.345390
     74 C25         0.3630   -6.3620    1.9180 c3        1 MOL     -0.465855
     75 O14         2.3740   -6.8820    0.9370 oh        1 MOL     -0.610538
     76 H29         3.1320   -5.3160   -0.5960 hn        1 MOL      0.108447
     77 H30         0.6350   -6.3150   -0.8160 h1        1 MOL      0.099555
     78 H31         1.9880   -5.0470    1.5750 h1        1 MOL     -0.003047
     79 H32         2.8880   -6.9650    1.7470 ho        1 MOL      0.381392
     80 H33         0.7190   -6.6860    2.8980 hc        1 MOL      0.137027
     81 H34        -0.3880   -5.6200    2.1930 hc        1 MOL      0.137027
     82 H35        -0.1760   -7.2000    1.4750 hc        1 MOL      0.137027
     83 N9         -1.1240   -4.4040   -0.9200 n         1 MOL     -0.678827
     84 C26        -2.1750   -3.3980   -0.8330 c3        1 MOL      0.021970
     85 C27        -2.7640   -3.4270    0.5770 c         1 MOL      0.239459
     86 O15        -2.9020   -4.5070    1.1320 o         1 MOL     -0.509887
     87 C28        -3.2950   -3.7880   -1.9720 c3        1 MOL      0.275867
     88 C29        -4.5830   -2.8870   -2.0100 c3        1 MOL      0.061485
     89 C30        -2.6420   -3.7650   -3.3930 c3        1 MOL     -0.190871
     90 C31        -5.5730   -3.2400   -3.0990 c3        1 MOL     -0.375237
     91 H36        -1.1780   -5.0990   -1.6510 hn        1 MOL      0.333816
     92 H37        -1.8320   -2.3950   -1.0640 h1        1 MOL      0.170966
     93 H38        -3.6340   -4.8220   -1.9060 hc        1 MOL     -0.038284
     94 H39        -4.1600   -1.8770   -1.9970 hc        1 MOL      0.001201
     95 H40        -5.0730   -2.9320   -1.0390 hc        1 MOL      0.001201
     96 H41        -2.6720   -2.7160   -3.6900 hc        1 MOL      0.034773
     97 H42        -1.6090   -4.0960   -3.3180 hc        1 MOL      0.034773
     98 H43        -3.1610   -4.3820   -4.1200 hc        1 MOL      0.034773
     99 H44        -6.5000   -2.6600   -3.0090 hc        1 MOL      0.086750
    100 H45        -5.0980   -3.2800   -4.0770 hc        1 MOL      0.086750
    101 H46        -5.8840   -4.2330   -2.7740 hc        1 MOL      0.086750
    102 N10        -3.1140   -2.3200    1.2110 n         1 MOL     -0.145979
    103 C32        -3.7610   -2.1970    2.5490 c3        1 MOL      0.035732
    104 C33        -5.0210   -1.3360    2.5120 c         1 MOL      0.511449
    105 O16        -5.7200   -1.3160    3.5490 o         1 MOL     -0.548777
    106 C34        -2.6220   -1.6500    3.4380 c3        1 MOL     -0.061720
    107 C35        -1.4770   -2.6190    3.5440 c         1 MOL      0.730678
    108 O17        -0.3620   -2.1960    3.1640 o         1 MOL     -0.699140
    109 O18        -1.6440   -3.7000    4.1350 o         1 MOL     -0.699140
    110 H47        -2.9910   -1.4900    0.6530 hn        1 MOL     -0.002015
    111 H48        -4.1270   -3.1680    2.8830 h1        1 MOL      0.108692
    112 H49        -3.1760   -1.5010    4.3630 hc        1 MOL     -0.008046
    113 H50        -2.4090   -0.6580    3.0370 hc        1 MOL     -0.008046
    114 N11        -5.4150   -0.6690    1.3410 n         1 MOL     -0.557911
    115 C36        -6.6040    0.0850    1.1990 c3        1 MOL      0.367157
    116 C37        -6.3680    1.2920    0.3520 c         1 MOL      0.186109
    117 O19        -6.9490    1.3970   -0.6970 o         1 MOL     -0.386857
    118 C38        -7.6960   -0.9280    0.7020 c3        1 MOL     -0.375312
    119 C39        -9.0950   -0.3720    0.5320 ca        1 MOL      0.198803
    120 C40        -9.8870    0.1060    1.5860 ca        1 MOL     -0.210263
    121 C41        -9.5830   -0.3590   -0.7990 ca        1 MOL     -0.210263
    122 C42       -11.1530    0.7080    1.3190 ca        1 MOL     -0.098387
    123 C43       -10.8830    0.1160   -1.0300 ca        1 MOL     -0.098387
    124 C44       -11.6570    0.6770    0.0220 ca        1 MOL     -0.146410
    125 H51        -4.6940   -0.5840    0.6390 hn        1 MOL      0.357145
    126 H52        -6.9210    0.5100    2.1540 h1        1 MOL      0.014306
    127 H53        -7.8020   -1.8660    1.2380 hc        1 MOL      0.133540
    128 H54        -7.3330   -1.3740   -0.2200 hc        1 MOL      0.133540
    129 H55        -9.4380    0.2660    2.5540 ha        1 MOL      0.131306
    130 H56        -9.0310   -0.7950   -1.6210 ha        1 MOL      0.131306
    131 H57       -11.7480    1.1380    2.0980 ha        1 MOL      0.099181
    132 H58       -11.2740    0.1500   -2.0390 ha        1 MOL      0.099181
    133 H59       -12.6970    0.9310   -0.1160 ha        1 MOL      0.095324
    134 N12        -5.3800    2.1700    0.7980 n         1 MOL      0.037108
    135 C45        -5.1320    3.4770    0.2300 c3        1 MOL     -0.066795
    136 C46        -4.4010    3.5470   -1.1290 c         1 MOL      0.282319
    137 O20        -4.5210    4.5280   -1.7840 o         1 MOL     -0.480604
    138 C47        -4.2660    4.2580    1.1930 c3        1 MOL     -0.151245
    139 C48        -4.5090    3.5060    2.4720 c3        1 MOL     -0.069808
    140 C49        -4.6430    2.0710    2.0820 c3        1 MOL     -0.133790
    141 H60        -6.0890    4.0070    0.2060 h1        1 MOL      0.100849
    142 H61        -3.2090    4.1570    0.9830 hc        1 MOL      0.098246
    143 H62        -4.6890    5.2610    1.3220 hc        1 MOL      0.098246
    144 H63        -3.7060    3.6490    3.2030 hc        1 MOL      0.029769
    145 H64        -5.4460    3.7390    2.9720 hc        1 MOL      0.029769
    146 H65        -3.6150    1.7510    1.9300 h1        1 MOL      0.117976
    147 H66        -5.1880    1.5430    2.8660 h1        1 MOL      0.117976
    148 N13        -3.9320    2.3880   -1.5850 n         1 MOL     -0.032019
    149 C50        -3.6700    2.1420   -2.9880 c3        1 MOL     -0.238557
    150 C51        -4.9010    2.1620   -3.9760 c         1 MOL      0.525852
    151 O21        -4.7760    2.5250   -5.1190 o         1 MOL     -0.543595
    152 C52        -2.8650    0.8130   -3.1350 c3        1 MOL     -0.161229
    153 C53        -1.6160    0.8100   -2.1910 c3        1 MOL     -0.012945
    154 C54        -1.8980    0.1870   -0.8490 c         1 MOL      0.549742
    155 O22        -0.8980   -0.1620   -0.1800 o         1 MOL     -0.615583
    156 O23        -3.0360   -0.1120   -0.4430 o         1 MOL     -0.615583
    157 H67        -3.9450    1.6270   -0.9290 hn        1 MOL      0.165722
    158 H68        -3.0210    2.9590   -3.3110 h1        1 MOL      0.125349
    159 H69        -2.5640    0.6440   -4.1650 hc        1 MOL      0.063160
    160 H70        -3.5520    0.0090   -2.8720 hc        1 MOL      0.063160
    161 H71        -1.2310    1.7990   -1.9500 hc        1 MOL      0.037880
    162 H72        -0.7450    0.3510   -2.6630 hc        1 MOL      0.037880
    163 N14        -6.0970    1.8290   -3.4870 n         1 MOL     -0.144217
    164 C55        -7.3560    2.0380   -4.2980 c3        1 MOL     -0.270307
    165 H73        -7.5020    3.1050   -4.4720 h1        1 MOL      0.104567
    166 H74        -7.2630    1.5240   -5.2540 h1        1 MOL      0.104567
    167 H75        -8.2100    1.6390   -3.7520 h1        1 MOL      0.104567
    168 H76        -6.2830    1.4780   -2.5560 hn        1 MOL      0.137033
    169 Ca1         1.0620   -0.7090    1.3200 Ca        1 MOL      1.764289
    170 O24         1.6910    1.5260   -0.3270 oh        1 MOL     -0.859013
    171 H77         2.2150    2.1740    0.1240 ho        1 MOL      0.416887
    172 H78         1.3940    1.9760   -1.1230 ho        1 MOL      0.416887
    173 O25         2.0790   -1.5190   -1.1500 oh        1 MOL     -0.859013
    174 H79         1.7490   -2.1220   -1.8230 ho        1 MOL      0.416887
    175 H80         3.0250   -1.4980   -1.3060 ho        1 MOL      0.416887
    176 O26         2.9190   -2.8010    2.0070 oh        1 MOL     -0.859013
    177 H81         2.8560   -3.2130    2.8770 ho        1 MOL      0.416887
    178 H82         3.4990   -3.3740    1.5080 ho        1 MOL      0.416887
    179 O27        -0.4260    1.2530    2.4330 oh        1 MOL     -0.859013
    180 H83        -0.7190    1.3590    3.3340 ho        1 MOL      0.416887
    181 H84        -0.3350    2.1410    2.0990 ho        1 MOL      0.416887
@<TRIPOS>BOND
     1    1    2 1   
     2    1    4 1   
     3    1    5 1   
     4    1    6 1   
     5    2    3 2   
     6    2    7 1   
     7    7    8 1   
     8    7   15 1   
     9    8    9 1   
    10    8   11 1   
    11    8   16 1   
    12    9   10 2   
    13    9   19 1   
    14   11   12 1   
    15   11   17 1   
    16   11   18 1   
    17   12   13 1   
    18   12   14 1   
    19   19   20 1   
    20   19   24 1   
    21   20   21 1   
    22   20   23 1   
    23   20   25 1   
    24   21   22 2   
    25   21   29 1   
    26   23   26 1   
    27   23   27 1   
    28   23   28 1   
    29   29   30 1   
    30   29   37 1   
    31   30   31 1   
    32   30   33 1   
    33   30   38 1   
    34   31   32 2   
    35   31   41 1   
    36   33   34 1   
    37   33   39 1   
    38   33   40 1   
    39   34   35 1   
    40   34   36 1   
    41   41   42 1   
    42   41   45 1   
    43   42   43 1   
    44   42   46 1   
    45   42   47 1   
    46   43   44 2   
    47   43   48 1   
    48   48   49 1   
    49   48   56 1   
    50   49   50 1   
    51   49   52 1   
    52   49   57 1   
    53   50   51 2   
    54   50   62 1   
    55   52   53 1   
    56   52   58 1   
    57   52   59 1   
    58   53   54 1   
    59   53   55 2   
    60   54   60 1   
    61   54   61 1   
    62   62   63 1   
    63   62   66 1   
    64   63   64 1   
    65   63   67 1   
    66   63   68 1   
    67   64   65 2   
    68   64   69 1   
    69   69   70 1   
    70   69   76 1   
    71   70   71 1   
    72   70   73 1   
    73   70   77 1   
    74   71   72 2   
    75   71   83 1   
    76   73   74 1   
    77   73   75 1   
    78   73   78 1   
    79   74   80 1   
    80   74   81 1   
    81   74   82 1   
    82   75   79 1   
    83   83   84 1   
    84   83   91 1   
    85   84   85 1   
    86   84   87 1   
    87   84   92 1   
    88   85   86 2   
    89   85  102 1   
    90   87   88 1   
    91   87   89 1   
    92   87   93 1   
    93   88   90 1   
    94   88   94 1   
    95   88   95 1   
    96   89   96 1   
    97   89   97 1   
    98   89   98 1   
    99   90   99 1   
   100   90  100 1   
   101   90  101 1   
   102  102  103 1   
   103  102  110 1   
   104  103  104 1   
   105  103  106 1   
   106  103  111 1   
   107  104  105 2   
   108  104  114 1   
   109  106  107 1   
   110  106  112 1   
   111  106  113 1   
   112  107  108 1   
   113  107  109 1   
   114  114  115 1   
   115  114  125 1   
   116  115  116 1   
   117  115  118 1   
   118  115  126 1   
   119  116  117 2   
   120  116  134 1   
   121  118  119 1   
   122  118  127 1   
   123  118  128 1   
   124  119  120 ar  
   125  119  121 ar  
   126  120  122 ar  
   127  120  129 1   
   128  121  123 ar  
   129  121  130 1   
   130  122  124 ar  
   131  122  131 1   
   132  123  124 ar  
   133  123  132 1   
   134  124  133 1   
   135  134  135 1   
   136  134  140 1   
   137  135  136 1   
   138  135  138 1   
   139  135  141 1   
   140  136  137 2   
   141  136  148 1   
   142  138  139 1   
   143  138  142 1   
   144  138  143 1   
   145  139  140 1   
   146  139  144 1   
   147  139  145 1   
   148  140  146 1   
   149  140  147 1   
   150  148  149 1   
   151  148  157 1   
   152  149  150 1   
   153  149  152 1   
   154  149  158 1   
   155  150  151 2   
   156  150  163 1   
   157  152  153 1   
   158  152  159 1   
   159  152  160 1   
   160  153  154 1   
   161  153  161 1   
   162  153  162 1   
   163  154  155 1   
   164  154  156 1   
   165  163  164 1   
   166  163  168 1   
   167  164  165 1   
   168  164  166 1   
   169  164  167 1   
   170  170  171 1   
   171  170  172 1   
   172  173  174 1   
   173  173  175 1   
   174  176  177 1   
   175  176  178 1   
   176  179  180 1   
   177  179  181 1   
@<TRIPOS>SUBSTRUCTURE
     1 MOL         1 TEMP              0 ****  ****    0 ROOT
