@<TRIPOS>MOLECULE
MOL
  178   175     1     0     0
SMALL
resp


@<TRIPOS>ATOM
      1 C1          4.2300   -1.9220    2.9300 c3        1 MOL     -0.524876
      2 C2          5.4970   -1.0040    2.6610 c         1 MOL      0.772298
      3 O1          5.3910    0.0500    2.0450 o         1 MOL     -0.585690
      4 H1          4.3330   -2.4070    3.9000 hc        1 MOL      0.142683
      5 H2          3.3290   -1.3080    2.9250 hc        1 MOL      0.142683
      6 H3          4.1580   -2.6800    2.1500 hc        1 MOL      0.142683
      7 N1          6.6340   -1.4080    3.1930 n         1 MOL     -0.665397
      8 C3          7.8590   -0.6370    3.1430 c3        1 MOL      0.257036
      9 C4          8.7500   -1.2320    2.0060 c         1 MOL      0.559188
     10 O2          9.0700   -2.3690    2.1020 o         1 MOL     -0.523154
     11 C5          8.4820   -0.6810    4.4890 c3        1 MOL     -0.214965
     12 C6          9.7060    0.2010    4.6070 c         1 MOL      0.775647
     13 O3         10.5450    0.1030    5.4880 o         1 MOL     -0.746287
     14 O4          9.7210    1.2430    3.8620 o         1 MOL     -0.746287
     15 H4          6.6300   -2.1540    3.8640 hn        1 MOL      0.318291
     16 H5          7.6130    0.3780    2.8270 h1        1 MOL      0.016088
     17 H6          8.8470   -1.6590    4.7840 hc        1 MOL      0.019461
     18 H7          7.7280   -0.3370    5.1980 hc        1 MOL      0.019461
     19 N2          9.0850   -0.4820    0.9320 n         1 MOL     -0.663026
     20 C7          9.3680   -1.0240   -0.4010 c3        1 MOL      0.474592
     21 C8          8.0630   -1.2860   -1.2410 c         1 MOL      0.227821
     22 O5          8.0970   -1.6030   -2.4510 o         1 MOL     -0.527043
     23 C9         10.3100    0.0050   -1.0670 c3        1 MOL     -0.414519
     24 H8          8.6890    0.4520    0.8790 hn        1 MOL      0.302402
     25 H9          9.8400   -1.9920   -0.2790 h1        1 MOL      0.031054
     26 H10        11.2760    0.1080   -0.5550 hc        1 MOL      0.101591
     27 H11        10.6130   -0.4450   -2.0120 hc        1 MOL      0.101591
     28 H12         9.7290    0.9080   -1.2580 hc        1 MOL      0.101591
     29 N3          6.8300   -1.1260   -0.7610 n         1 MOL     -0.133343
     30 C10         5.5610   -1.4130   -1.3780 c3        1 MOL      0.123921
     31 C11         5.3420   -0.4880   -2.6050 c         1 MOL      0.486081
     32 O6          4.7860   -0.9830   -3.5640 o         1 MOL     -0.481006
     33 C12         5.3520   -2.9130   -1.6840 c3        1 MOL     -0.116380
     34 C13         3.8020   -3.3070   -1.7550 c         1 MOL      0.736401
     35 O7          3.3800   -4.4310   -2.2240 o         1 MOL     -0.784265
     36 O8          2.8930   -2.7100   -1.1760 o         1 MOL     -0.784265
     37 H13         6.8660   -0.6550    0.1270 hn        1 MOL      0.068968
     38 H14         4.7200   -1.1360   -0.7320 h1        1 MOL      0.032631
     39 H15         5.8100   -3.5280   -0.9040 hc        1 MOL      0.029593
     40 H16         5.7980   -3.2510   -2.6120 hc        1 MOL      0.029593
     41 N4          5.8080    0.7560   -2.5840 n         1 MOL     -0.323722
     42 C14         5.8560    1.6970   -3.7450 c3        1 MOL     -0.182469
     43 C15         4.3780    2.2060   -4.0360 c         1 MOL      0.488965
     44 O9          4.0920    2.5440   -5.1820 o         1 MOL     -0.556107
     45 H17         6.2370    1.0380   -1.7180 hn        1 MOL      0.271103
     46 H18         6.2250    1.2480   -4.6680 h1        1 MOL      0.116069
     47 H19         6.5570    2.4870   -3.4590 h1        1 MOL      0.116069
     48 N5          3.5990    2.2650   -2.9910 n         1 MOL     -0.338839
     49 C16         2.1740    2.5740   -3.0200 c3        1 MOL     -0.089968
     50 C17         1.8050    3.8280   -2.2730 c         1 MOL      0.486382
     51 O10         2.0510    4.0420   -1.1040 o         1 MOL     -0.495359
     52 C18         1.4280    1.3340   -2.5750 c3        1 MOL      0.173566
     53 C19        -0.0620    1.3420   -2.9940 c         1 MOL      0.520080
     54 N6         -0.5850    0.1620   -3.0910 n         1 MOL     -0.769632
     55 O11        -0.6950    2.3200   -3.3840 o         1 MOL     -0.590452
     56 H20         4.0840    2.0750   -2.1320 hn        1 MOL      0.219652
     57 H21         1.8440    2.7730   -4.0410 h1        1 MOL      0.071882
     58 H22         1.4250    1.2540   -1.4920 hc        1 MOL      0.029510
     59 H23         1.9490    0.4460   -2.9120 hc        1 MOL      0.029510
     60 H24        -0.0960   -0.6570   -2.7400 hn        1 MOL      0.375740
     61 H25        -1.5570    0.1260   -3.3620 hn        1 MOL      0.375740
     62 N7          1.2940    4.7990   -3.0460 n         1 MOL     -0.209216
     63 C20         0.8990    6.0770   -2.5120 c3        1 MOL     -0.445077
     64 C21        -0.3870    5.9670   -1.6710 c         1 MOL      0.689661
     65 O12        -1.3690    5.4710   -2.2040 o         1 MOL     -0.507028
     66 H26         1.2190    4.5980   -4.0300 hn        1 MOL      0.261631
     67 H27         0.5800    6.5810   -3.4230 h1        1 MOL      0.146758
     68 H28         1.7340    6.6010   -2.0430 h1        1 MOL      0.146758
     69 N8         -0.4330    6.6060   -0.5150 n         1 MOL     -0.423807
     70 C22        -1.6650    6.8440    0.1590 c3        1 MOL     -0.322328
     71 C23        -2.0450    5.6970    1.0300 c         1 MOL      0.584901
     72 O13        -3.1490    5.7390    1.5510 o         1 MOL     -0.566634
     73 C24        -1.6880    8.1750    0.9030 c3        1 MOL      0.573189
     74 C25        -0.6100    8.4830    1.9850 c3        1 MOL     -0.454091
     75 O14        -1.5400    9.1840   -0.0810 oh        1 MOL     -0.662347
     76 H29         0.3450    7.2100   -0.2810 hn        1 MOL      0.271045
     77 H30        -2.4370    6.9200   -0.6090 h1        1 MOL      0.160303
     78 H31        -2.6640    8.3280    1.3720 h1        1 MOL      0.018449
     79 H32        -0.6050    9.2520   -0.2880 ho        1 MOL      0.386329
     80 H33         0.2970    8.5900    1.3760 hc        1 MOL      0.105341
     81 H34        -0.8080    9.3410    2.6280 hc        1 MOL      0.105341
     82 H35        -0.5630    7.6610    2.6930 hc        1 MOL      0.105341
     83 N9         -1.1430    4.6850    1.2610 n         1 MOL     -0.375468
     84 C26        -1.4030    3.4900    2.0870 c3        1 MOL      0.058592
     85 C27        -1.1020    2.2910    1.1570 c         1 MOL      0.506463
     86 O15        -0.0860    2.2400    0.4560 o         1 MOL     -0.460083
     87 C28        -0.4940    3.6100    3.3190 c3        1 MOL      0.056860
     88 C29        -0.9860    4.6320    4.4460 c3        1 MOL     -0.207314
     89 C30        -0.4300    2.1790    3.8820 c3        1 MOL     -0.272326
     90 C31        -2.4800    4.4230    4.8860 c3        1 MOL      0.027982
     91 H36        -0.2610    4.6650    0.7690 hn        1 MOL      0.223350
     92 H37        -2.4460    3.5130    2.4070 h1        1 MOL      0.064762
     93 H38         0.4890    3.8960    2.9620 hc        1 MOL      0.051224
     94 H39        -0.8240    5.6460    4.0560 hc        1 MOL      0.064267
     95 H40        -0.4390    4.5180    5.3860 hc        1 MOL      0.064267
     96 H41        -1.4690    1.8370    3.9270 hc        1 MOL      0.077076
     97 H42         0.2670    1.5860    3.2950 hc        1 MOL      0.077076
     98 H43        -0.1440    2.2910    4.9360 hc        1 MOL      0.077076
     99 H44        -3.1700    4.7830    4.1230 hc        1 MOL      0.001220
    100 H45        -2.6790    3.3580    5.0640 hc        1 MOL      0.001220
    101 H46        -2.7700    4.8480    5.8440 hc        1 MOL      0.001220
    102 N10        -1.9890    1.3200    1.1490 n         1 MOL     -0.474650
    103 C32        -1.9880    0.0840    0.3480 c3        1 MOL      0.415937
    104 C33        -3.4100   -0.3130   -0.1780 c         1 MOL      0.331265
    105 O16        -3.6390   -1.5030   -0.4470 o         1 MOL     -0.417835
    106 C34        -1.0640   -0.9870    1.0050 c3        1 MOL     -0.546006
    107 C35        -0.5600   -1.9330   -0.0070 c         1 MOL      0.909042
    108 O17        -0.5830   -3.1340    0.3360 o         1 MOL     -0.734380
    109 O18         0.0070   -1.6470   -1.0290 o         1 MOL     -0.734380
    110 H47        -2.8850    1.5670    1.5530 hn        1 MOL      0.213479
    111 H48        -1.4460    0.4210   -0.5410 h1        1 MOL     -0.000789
    112 H49        -1.5970   -1.6510    1.6840 hc        1 MOL      0.140782
    113 H50        -0.2000   -0.4950    1.4460 hc        1 MOL      0.140782
    114 N11        -4.3070    0.7050   -0.1150 n         1 MOL     -0.403016
    115 C36        -5.7540    0.4980   -0.2850 c3        1 MOL      0.197501
    116 C37        -6.3970   -0.5700    0.5850 c         1 MOL      0.372869
    117 O19        -6.1220   -0.5570    1.8490 o         1 MOL     -0.545462
    118 C38        -6.5470    1.8120   -0.3130 c3        1 MOL     -0.287161
    119 C39        -7.9820    1.6540   -0.6700 ca        1 MOL      0.150529
    120 C40        -8.3690    1.7960   -2.0320 ca        1 MOL     -0.188572
    121 C41        -8.9750    1.3740    0.2750 ca        1 MOL     -0.188572
    122 C42        -9.7000    1.5370   -2.4690 ca        1 MOL     -0.112473
    123 C43       -10.3190    1.0380   -0.1160 ca        1 MOL     -0.112473
    124 C44       -10.6650    1.2070   -1.5090 ca        1 MOL     -0.126146
    125 H51        -3.9250    1.6300   -0.0170 hn        1 MOL      0.267471
    126 H52        -5.8410    0.1530   -1.3210 h1        1 MOL      0.025657
    127 H53        -6.1340    2.4040   -1.1360 hc        1 MOL      0.113927
    128 H54        -6.4740    2.3680    0.6320 hc        1 MOL      0.113927
    129 H55        -7.6750    2.1080   -2.7970 ha        1 MOL      0.132408
    130 H56        -8.7110    1.3020    1.3140 ha        1 MOL      0.132408
    131 H57       -10.0410    1.5490   -3.4950 ha        1 MOL      0.118330
    132 H58       -11.1160    0.6830    0.5120 ha        1 MOL      0.118330
    133 H59       -11.7120    1.1290   -1.7650 ha        1 MOL      0.104018
    134 N12        -7.0860   -1.5750    0.0390 n         1 MOL      0.013594
    135 C45        -7.6850   -2.6650    0.7700 c3        1 MOL      0.262016
    136 C46        -6.8800   -3.6950    1.4810 c         1 MOL      0.227578
    137 O20        -7.3790   -4.4460    2.3220 o         1 MOL     -0.504026
    138 C47        -8.7650   -3.2440   -0.1160 c3        1 MOL     -0.314422
    139 C48        -8.2480   -2.9430   -1.4960 c3        1 MOL      0.090397
    140 C49        -7.6710   -1.5730   -1.3040 c3        1 MOL     -0.261660
    141 H60        -8.2250   -2.1260    1.5660 h1        1 MOL      0.004913
    142 H61        -8.9220   -4.3160   -0.0620 hc        1 MOL      0.101256
    143 H62        -9.6470   -2.6480    0.0900 hc        1 MOL      0.101256
    144 H63        -7.4270   -3.5800   -1.8230 hc        1 MOL      0.021840
    145 H64        -9.0060   -2.9940   -2.2780 hc        1 MOL      0.021840
    146 H65        -6.9440   -1.4610   -2.1030 h1        1 MOL      0.099500
    147 H66        -8.5630   -0.9440   -1.3800 h1        1 MOL      0.099500
    148 N13        -5.5990   -3.7810    1.0860 n         1 MOL     -0.088199
    149 C50        -4.6670   -4.7370    1.6670 c3        1 MOL     -0.118333
    150 C51        -4.4490   -4.4120    3.1720 c         1 MOL      0.429608
    151 O21        -3.9710   -5.2780    3.9450 o         1 MOL     -0.540995
    152 C52        -3.3250   -4.6900    0.9020 c3        1 MOL     -0.062803
    153 C53        -3.5020   -5.0720   -0.5730 c3        1 MOL     -0.058710
    154 C54        -2.0950   -5.0330   -1.2510 c         1 MOL      0.694171
    155 O22        -1.2320   -5.7640   -0.7720 o         1 MOL     -0.774249
    156 O23        -1.8740   -4.3070   -2.2220 o         1 MOL     -0.774249
    157 H67        -5.1670   -3.0300    0.5880 hn        1 MOL      0.111360
    158 H68        -5.1100   -5.7280    1.5840 h1        1 MOL      0.121913
    159 H69        -2.4940   -5.1530    1.4260 hc        1 MOL      0.062022
    160 H70        -2.9870   -3.6500    0.8530 hc        1 MOL      0.062022
    161 H71        -4.2160   -4.4120   -1.0590 hc        1 MOL      0.001237
    162 H72        -3.9810   -6.0360   -0.6750 hc        1 MOL      0.001237
    163 N14        -4.6680   -3.1200    3.5850 n         1 MOL     -0.179342
    164 C55        -4.2870   -2.3910    4.8520 c3        1 MOL     -0.220292
    165 H73        -3.4690   -2.9190    5.3420 h1        1 MOL      0.096758
    166 H74        -3.9700   -1.3780    4.6080 h1        1 MOL      0.096758
    167 H75        -5.1470   -2.3520    5.5220 h1        1 MOL      0.096758
    168 H76        -5.0720   -2.5950    2.8260 hn        1 MOL      0.195346
    169 Ca1         0.8350   -4.3140   -1.4940 Ca        1 MOL      1.737573
    170 O24         0.9200   -3.0210   -3.9520 oh        1 MOL     -0.801069
    171 H77         1.6260   -3.2690   -4.5500 ho        1 MOL      0.398456
    172 H78         0.2200   -2.7000   -4.5180 ho        1 MOL      0.398456
    173 O25         1.9970   -5.8820    0.2410 oh        1 MOL     -0.801069
    174 H79         2.0810   -6.7790   -0.0660 ho        1 MOL      0.398456
    175 H80         2.1060   -5.9390    1.1910 ho        1 MOL      0.398456
    176 O26         1.2700   -6.5380   -2.8180 oh        1 MOL     -0.801069
    177 H81         1.4220   -7.2050   -2.1400 ho        1 MOL      0.398456
    178 H82         1.7050   -6.8910   -3.5980 ho        1 MOL      0.398456
@<TRIPOS>BOND
     1    1    2 1   
     2    1    4 1   
     3    1    5 1   
     4    1    6 1   
     5    2    3 2   
     6    2    7 1   
     7    7    8 1   
     8    7   15 1   
     9    8    9 1   
    10    8   11 1   
    11    8   16 1   
    12    9   10 2   
    13    9   19 1   
    14   11   12 1   
    15   11   17 1   
    16   11   18 1   
    17   12   13 1   
    18   12   14 1   
    19   19   20 1   
    20   19   24 1   
    21   20   21 1   
    22   20   23 1   
    23   20   25 1   
    24   21   22 2   
    25   21   29 1   
    26   23   26 1   
    27   23   27 1   
    28   23   28 1   
    29   29   30 1   
    30   29   37 1   
    31   30   31 1   
    32   30   33 1   
    33   30   38 1   
    34   31   32 2   
    35   31   41 1   
    36   33   34 1   
    37   33   39 1   
    38   33   40 1   
    39   34   35 1   
    40   34   36 1   
    41   41   42 1   
    42   41   45 1   
    43   42   43 1   
    44   42   46 1   
    45   42   47 1   
    46   43   44 2   
    47   43   48 1   
    48   48   49 1   
    49   48   56 1   
    50   49   50 1   
    51   49   52 1   
    52   49   57 1   
    53   50   51 2   
    54   50   62 1   
    55   52   53 1   
    56   52   58 1   
    57   52   59 1   
    58   53   54 1   
    59   53   55 2   
    60   54   60 1   
    61   54   61 1   
    62   62   63 1   
    63   62   66 1   
    64   63   64 1   
    65   63   67 1   
    66   63   68 1   
    67   64   65 2   
    68   64   69 1   
    69   69   70 1   
    70   69   76 1   
    71   70   71 1   
    72   70   73 1   
    73   70   77 1   
    74   71   72 2   
    75   71   83 1   
    76   73   74 1   
    77   73   75 1   
    78   73   78 1   
    79   74   80 1   
    80   74   81 1   
    81   74   82 1   
    82   75   79 1   
    83   83   84 1   
    84   83   91 1   
    85   84   85 1   
    86   84   87 1   
    87   84   92 1   
    88   85   86 2   
    89   85  102 1   
    90   87   88 1   
    91   87   89 1   
    92   87   93 1   
    93   88   90 1   
    94   88   94 1   
    95   88   95 1   
    96   89   96 1   
    97   89   97 1   
    98   89   98 1   
    99   90   99 1   
   100   90  100 1   
   101   90  101 1   
   102  102  103 1   
   103  102  110 1   
   104  103  104 1   
   105  103  106 1   
   106  103  111 1   
   107  104  105 2   
   108  104  114 1   
   109  106  107 1   
   110  106  112 1   
   111  106  113 1   
   112  107  108 1   
   113  107  109 1   
   114  114  115 1   
   115  114  125 1   
   116  115  116 1   
   117  115  118 1   
   118  115  126 1   
   119  116  117 2   
   120  116  134 1   
   121  118  119 1   
   122  118  127 1   
   123  118  128 1   
   124  119  120 ar  
   125  119  121 ar  
   126  120  122 ar  
   127  120  129 1   
   128  121  123 ar  
   129  121  130 1   
   130  122  124 ar  
   131  122  131 1   
   132  123  124 ar  
   133  123  132 1   
   134  124  133 1   
   135  134  135 1   
   136  134  140 1   
   137  135  136 1   
   138  135  138 1   
   139  135  141 1   
   140  136  137 2   
   141  136  148 1   
   142  138  139 1   
   143  138  142 1   
   144  138  143 1   
   145  139  140 1   
   146  139  144 1   
   147  139  145 1   
   148  140  146 1   
   149  140  147 1   
   150  148  149 1   
   151  148  157 1   
   152  149  150 1   
   153  149  152 1   
   154  149  158 1   
   155  150  151 2   
   156  150  163 1   
   157  152  153 1   
   158  152  159 1   
   159  152  160 1   
   160  153  154 1   
   161  153  161 1   
   162  153  162 1   
   163  154  155 1   
   164  154  156 1   
   165  163  164 1   
   166  163  168 1   
   167  164  165 1   
   168  164  166 1   
   169  164  167 1   
   170  170  171 1   
   171  170  172 1   
   172  173  174 1   
   173  173  175 1   
   174  176  177 1   
   175  176  178 1   
@<TRIPOS>SUBSTRUCTURE
     1 MOL         1 TEMP              0 ****  ****    0 ROOT
