@<TRIPOS>MOLECULE
MOL
  181   177     1     0     0
SMALL
resp


@<TRIPOS>ATOM
      1 C1          9.9320    7.2960   -1.6840 c3        1 MOL     -0.375341
      2 C2          8.9490    6.3380   -0.9870 c         1 MOL      0.692637
      3 O1          7.8090    6.7290   -0.6330 o         1 MOL     -0.571081
      4 H1         10.0460    7.0030   -2.7270 hc        1 MOL      0.104494
      5 H2          9.5450    8.3140   -1.6340 hc        1 MOL      0.104494
      6 H3         10.9000    7.2510   -1.1850 hc        1 MOL      0.104494
      7 N1          9.2210    5.0070   -0.8450 n         1 MOL     -0.787362
      8 C3         10.3670    4.2720   -1.4430 c3        1 MOL      0.527636
      9 C4         11.2770    3.6520   -0.3610 c         1 MOL      0.411791
     10 O2         12.4920    3.6970   -0.4700 o         1 MOL     -0.585130
     11 C5          9.9270    3.2050   -2.4630 c3        1 MOL     -0.423684
     12 C6          8.7540    2.2170   -2.1260 c         1 MOL      0.871587
     13 O3          8.2300    1.5440   -3.0220 o         1 MOL     -0.744532
     14 O4          8.4300    2.0350   -0.8760 o         1 MOL     -0.744532
     15 H4          8.6000    4.4060   -0.3250 hn        1 MOL      0.394665
     16 H5         10.9990    4.9790   -1.9740 h1        1 MOL     -0.060625
     17 H6         10.8070    2.6980   -2.8570 hc        1 MOL      0.089982
     18 H7          9.4770    3.7990   -3.2460 hc        1 MOL      0.089982
     19 N2         10.6640    3.0500    0.6160 n         1 MOL     -0.355235
     20 C7         11.2140    2.5980    1.9160 c3        1 MOL      0.238141
     21 C8         10.7480    1.1290    2.2070 c         1 MOL      0.193714
     22 O5         11.0610    0.6010    3.2790 o         1 MOL     -0.493241
     23 C9         10.6200    3.6280    2.9490 c3        1 MOL     -0.222545
     24 H8          9.6750    3.2150    0.5980 hn        1 MOL      0.241888
     25 H9         12.2960    2.6620    2.0270 h1        1 MOL      0.054042
     26 H10         9.5310    3.4950    2.9500 hc        1 MOL      0.065518
     27 H11        11.0300    3.4320    3.9320 hc        1 MOL      0.065518
     28 H12        10.8200    4.6370    2.6140 hc        1 MOL      0.065518
     29 N3          9.8480    0.6210    1.3770 n         1 MOL      0.112311
     30 C10         9.4310   -0.8270    1.5510 c3        1 MOL     -0.223889
     31 C11         8.9560   -1.4290    0.2270 c         1 MOL      0.481088
     32 O6          8.8480   -0.7960   -0.8070 o         1 MOL     -0.487103
     33 C12         8.2900   -0.9050    2.5910 c3        1 MOL     -0.037592
     34 C13         7.1890    0.1100    2.2410 c         1 MOL      0.670931
     35 O7          6.6390    0.0370    1.0850 o         1 MOL     -0.661465
     36 O8          6.7520    0.7920    3.1870 o         1 MOL     -0.661465
     37 H13         9.6190    1.0320    0.4800 hn        1 MOL      0.038463
     38 H14        10.2670   -1.3790    1.9770 h1        1 MOL      0.091063
     39 H15         8.6860   -0.6790    3.5840 hc        1 MOL      0.016135
     40 H16         7.7890   -1.8740    2.5550 hc        1 MOL      0.016135
     41 N4          8.6820   -2.7400    0.2000 n         1 MOL     -0.349033
     42 C14         8.0900   -3.4890   -0.8590 c3        1 MOL     -0.272484
     43 C15         6.6140   -3.4730   -0.9210 c         1 MOL      0.757691
     44 O9          5.9370   -2.4520   -0.7470 o         1 MOL     -0.569806
     45 H17         8.7680   -3.3090    1.0290 hn        1 MOL      0.291554
     46 H18         8.4350   -4.4700   -0.5320 h1        1 MOL      0.117108
     47 H19         8.5170   -3.2330   -1.8210 h1        1 MOL      0.117108
     48 N5          6.1150   -4.5890   -1.4070 n         1 MOL     -0.700404
     49 C16         4.7220   -4.6910   -1.8200 c3        1 MOL      0.413001
     50 C17         3.6800   -4.8530   -0.6920 c         1 MOL      0.447581
     51 O10         3.9770   -5.3440    0.4010 o         1 MOL     -0.505147
     52 C18         4.6840   -5.6750   -2.9960 c3        1 MOL     -0.357326
     53 C19         3.2710   -5.9330   -3.5680 c         1 MOL      0.669625
     54 N6          2.4510   -6.7260   -2.9830 n         1 MOL     -0.793069
     55 O11         2.8380   -5.2770   -4.5170 o         1 MOL     -0.566245
     56 H20         6.7110   -5.4050   -1.3540 hn        1 MOL      0.328715
     57 H21         4.5060   -3.7730   -2.3670 h1        1 MOL     -0.017938
     58 H22         5.0850   -6.5950   -2.5860 hc        1 MOL      0.091175
     59 H23         5.3330   -5.3530   -3.8030 hc        1 MOL      0.091175
     60 H24         2.6360   -7.2750   -2.1550 hn        1 MOL      0.379789
     61 H25         1.5350   -6.7770   -3.3950 hn        1 MOL      0.379789
     62 N7          2.4200   -4.4270   -0.9930 n         1 MOL     -0.464575
     63 C20         1.4310   -4.1840    0.0330 c3        1 MOL     -0.072937
     64 C21         1.5830   -2.8260    0.6840 c         1 MOL      0.782173
     65 O12         2.3500   -2.0010    0.2070 o         1 MOL     -0.631424
     66 H26         2.3080   -3.8970   -1.8440 hn        1 MOL      0.312931
     67 H27         1.5490   -5.0010    0.7520 h1        1 MOL      0.116020
     68 H28         0.4290   -4.2260   -0.3800 h1        1 MOL      0.116020
     69 N8          0.8630   -2.5460    1.7160 n         1 MOL     -0.607142
     70 C22        -0.1250   -3.3090    2.4770 c3        1 MOL     -0.281428
     71 C23        -1.4990   -2.7380    2.4750 c         1 MOL      0.739985
     72 O13        -2.4350   -3.4850    2.6580 o         1 MOL     -0.572536
     73 C24         0.4630   -3.4930    3.8500 c3        1 MOL      0.501398
     74 C25         1.6310   -4.4670    3.7230 c3        1 MOL     -0.539211
     75 O14         0.7600   -2.3010    4.4960 oh        1 MOL     -0.604127
     76 H29         0.9880   -1.6190    2.1130 hn        1 MOL      0.347257
     77 H30        -0.1950   -4.3250    2.0680 h1        1 MOL      0.093026
     78 H31        -0.2070   -4.0640    4.4940 h1        1 MOL      0.013897
     79 H32         1.6960   -2.1710    4.3900 ho        1 MOL      0.402222
     80 H33         2.3570   -4.1890    2.9590 hc        1 MOL      0.132256
     81 H34         2.2470   -4.5310    4.6180 hc        1 MOL      0.132256
     82 H35         1.3880   -5.4780    3.3940 hc        1 MOL      0.132256
     83 N9         -1.5800   -1.4260    2.2320 n         1 MOL     -0.373977
     84 C26        -2.8160   -0.6280    2.1580 c3        1 MOL      0.062021
     85 C27        -3.0070   -0.0400    0.7650 c         1 MOL      0.364655
     86 O15        -2.0950    0.6690    0.2890 o         1 MOL     -0.561325
     87 C28        -2.9290    0.5410    3.1420 c3        1 MOL     -0.033037
     88 C29        -2.6760   -0.0800    4.6160 c3        1 MOL      0.018083
     89 C30        -4.1820    1.3700    3.0060 c3        1 MOL      0.083735
     90 C31        -3.7030   -1.1410    5.0630 c3        1 MOL     -0.258318
     91 H36        -0.7290   -0.9590    1.9530 hn        1 MOL      0.235923
     92 H37        -3.6950   -1.2490    2.3240 h1        1 MOL      0.125397
     93 H38        -2.1130    1.2730    3.1430 hc        1 MOL     -0.011677
     94 H39        -2.7290    0.7190    5.3530 hc        1 MOL      0.005030
     95 H40        -1.6880   -0.5310    4.6820 hc        1 MOL      0.005030
     96 H41        -5.0390    0.6860    3.0580 hc        1 MOL      0.025871
     97 H42        -4.1800    2.0740    3.8340 hc        1 MOL      0.025871
     98 H43        -4.2090    2.0110    2.1210 hc        1 MOL      0.025871
     99 H44        -3.4450   -1.3760    6.0980 hc        1 MOL      0.053146
    100 H45        -4.6660   -0.6310    5.1050 hc        1 MOL      0.053146
    101 H46        -3.6390   -2.0540    4.4710 hc        1 MOL      0.053146
    102 N10        -4.1590   -0.0250    0.0900 n         1 MOL     -0.298269
    103 C32        -5.3180   -0.8830    0.4640 c3        1 MOL      0.063537
    104 C33        -6.6870   -0.3780   -0.1700 c         1 MOL      0.548014
    105 O16        -6.7580    0.3810   -1.0940 o         1 MOL     -0.484436
    106 C34        -5.1240   -2.3700   -0.0160 c3        1 MOL     -0.152090
    107 C35        -4.6230   -2.6640   -1.3910 c         1 MOL      0.743396
    108 O17        -4.2090   -3.7870   -1.6760 o         1 MOL     -0.740871
    109 O18        -4.6850   -1.7780   -2.2660 o         1 MOL     -0.740871
    110 H47        -4.1240    0.3550   -0.8480 hn        1 MOL      0.290444
    111 H48        -5.4460   -0.8900    1.5480 h1        1 MOL      0.032653
    112 H49        -6.0780   -2.9090   -0.0010 hc        1 MOL     -0.010328
    113 H50        -4.5150   -2.8350    0.7630 hc        1 MOL     -0.010328
    114 N11        -7.7850   -0.8160    0.4520 n         1 MOL     -0.641844
    115 C36        -9.0850   -0.6870   -0.1630 c3        1 MOL      0.611013
    116 C37       -10.0700    0.1050    0.7920 c         1 MOL      0.045652
    117 O19        -9.9680   -0.0910    2.0280 o         1 MOL     -0.475544
    118 C38        -9.6830   -2.0520   -0.4620 c3        1 MOL     -0.300391
    119 C39       -11.0320   -1.9230   -1.1940 ca        1 MOL      0.144951
    120 C40       -12.1790   -1.9140   -0.3930 ca        1 MOL     -0.198507
    121 C41       -11.1830   -1.8390   -2.5640 ca        1 MOL     -0.198507
    122 C42       -13.4620   -1.7300   -0.9370 ca        1 MOL     -0.090335
    123 C43       -12.4180   -1.6790   -3.1740 ca        1 MOL     -0.090335
    124 C44       -13.5830   -1.6820   -2.3840 ca        1 MOL     -0.189684
    125 H51        -7.6470   -1.5690    1.1040 hn        1 MOL      0.313203
    126 H52        -8.9540   -0.1750   -1.1080 h1        1 MOL     -0.029812
    127 H53        -9.8450   -2.6720    0.4130 hc        1 MOL      0.095435
    128 H54        -9.0350   -2.6530   -1.0960 hc        1 MOL      0.095435
    129 H55       -12.1030   -2.0010    0.6810 ha        1 MOL      0.134452
    130 H56       -10.3270   -1.9300   -3.2170 ha        1 MOL      0.134452
    131 H57       -14.2880   -1.6190   -0.2480 ha        1 MOL      0.107872
    132 H58       -12.4630   -1.5760   -4.2450 ha        1 MOL      0.107872
    133 H59       -14.5230   -1.4380   -2.8590 ha        1 MOL      0.109555
    134 N12       -11.0130    0.9790    0.3790 n         1 MOL      0.125330
    135 C45       -11.0820    1.5970   -0.9380 c3        1 MOL      0.028217
    136 C46        -9.8190    2.3360   -1.4470 c         1 MOL      0.462046
    137 O20        -9.4010    2.2390   -2.5670 o         1 MOL     -0.548280
    138 C47       -12.1900    2.6290   -0.8710 c3        1 MOL      0.050847
    139 C48       -13.0240    2.2950    0.3890 c3        1 MOL     -0.101187
    140 C49       -11.9870    1.6660    1.2670 c3        1 MOL     -0.057253
    141 H60       -11.2480    0.8460   -1.7140 h1        1 MOL      0.006521
    142 H61       -11.6370    3.5570   -0.7310 hc        1 MOL     -0.004078
    143 H62       -12.7060    2.7070   -1.8230 hc        1 MOL     -0.004078
    144 H63       -13.4830    3.2080    0.7580 hc        1 MOL      0.022944
    145 H64       -13.7220    1.5190    0.0650 hc        1 MOL      0.022944
    146 H65       -11.4720    2.3250    1.9710 h1        1 MOL      0.062568
    147 H66       -12.5620    0.9700    1.8730 h1        1 MOL      0.062568
    148 N13        -9.0820    3.0050   -0.5180 n         1 MOL     -0.212689
    149 C50        -7.8280    3.7740   -0.7900 c3        1 MOL     -0.047065
    150 C51        -8.0080    5.0370   -1.7510 c         1 MOL      0.439875
    151 O21        -8.5560    6.0220   -1.2620 o         1 MOL     -0.559837
    152 C52        -7.2370    4.1470    0.5930 c3        1 MOL      0.074699
    153 C53        -7.0050    2.9350    1.4080 c3        1 MOL     -0.037738
    154 C54        -6.6320    3.2660    2.8950 c         1 MOL      0.624577
    155 O22        -6.8990    2.3790    3.7560 o         1 MOL     -0.693715
    156 O23        -6.0860    4.3520    3.2070 o         1 MOL     -0.693715
    157 H67        -9.4950    3.0430    0.3950 hn        1 MOL      0.197385
    158 H68        -7.2200    3.0100   -1.2670 h1        1 MOL      0.111295
    159 H69        -7.9830    4.8420    0.9740 hc        1 MOL     -0.003124
    160 H70        -6.3440    4.7850    0.6070 hc        1 MOL     -0.003124
    161 H71        -6.2620    2.3310    0.8860 hc        1 MOL     -0.037061
    162 H72        -7.9280    2.3680    1.4520 hc        1 MOL     -0.037061
    163 N14        -7.5120    5.1370   -3.0100 n         1 MOL     -0.365478
    164 C55        -6.9970    4.0070   -3.7800 c3        1 MOL     -0.083972
    165 H73        -6.3180    4.3720   -4.5510 h1        1 MOL      0.068543
    166 H74        -6.4620    3.3280   -3.1170 h1        1 MOL      0.068543
    167 H75        -7.8280    3.4790   -4.2490 h1        1 MOL      0.068543
    168 H76        -7.7090    6.0250   -3.4460 hn        1 MOL      0.269154
    169 Ca1         6.4610    0.1840   -1.4970 Ca        1 MOL      1.572098
    170 O24         6.2140   -1.3630   -3.3690 oh        1 MOL     -0.800474
    171 H77         7.0570   -1.5400   -3.7910 ho        1 MOL      0.402462
    172 H78         5.5640   -1.7630   -3.9490 ho        1 MOL      0.402462
    173 O25         5.5560    1.6940   -3.5910 oh        1 MOL     -0.800474
    174 H79         6.0970    1.5000   -4.3610 ho        1 MOL      0.402462
    175 H80         4.6500    1.5860   -3.9030 ho        1 MOL      0.402462
    176 O26         5.5360    2.4530   -0.5000 oh        1 MOL     -0.800474
    177 H81         4.6360    2.6190   -0.7900 ho        1 MOL      0.402462
    178 H82         5.6980    3.1160    0.1690 ho        1 MOL      0.402462
    179 O27         3.9380   -0.0880   -1.2280 oh        1 MOL     -0.800474
    180 H83         3.6170   -0.8990   -0.8370 ho        1 MOL      0.402462
    181 H84         3.2090    0.2220   -1.7620 ho        1 MOL      0.402462
@<TRIPOS>BOND
     1    1    2 1   
     2    1    4 1   
     3    1    5 1   
     4    1    6 1   
     5    2    3 2   
     6    2    7 1   
     7    7    8 1   
     8    7   15 1   
     9    8    9 1   
    10    8   11 1   
    11    8   16 1   
    12    9   10 2   
    13    9   19 1   
    14   11   12 1   
    15   11   17 1   
    16   11   18 1   
    17   12   13 1   
    18   12   14 1   
    19   19   20 1   
    20   19   24 1   
    21   20   21 1   
    22   20   23 1   
    23   20   25 1   
    24   21   22 2   
    25   21   29 1   
    26   23   26 1   
    27   23   27 1   
    28   23   28 1   
    29   29   30 1   
    30   29   37 1   
    31   30   31 1   
    32   30   33 1   
    33   30   38 1   
    34   31   32 2   
    35   31   41 1   
    36   33   34 1   
    37   33   39 1   
    38   33   40 1   
    39   34   35 1   
    40   34   36 1   
    41   41   42 1   
    42   41   45 1   
    43   42   43 1   
    44   42   46 1   
    45   42   47 1   
    46   43   44 2   
    47   43   48 1   
    48   48   49 1   
    49   48   56 1   
    50   49   50 1   
    51   49   52 1   
    52   49   57 1   
    53   50   51 2   
    54   50   62 1   
    55   52   53 1   
    56   52   58 1   
    57   52   59 1   
    58   53   54 1   
    59   53   55 2   
    60   54   60 1   
    61   54   61 1   
    62   62   63 1   
    63   62   66 1   
    64   63   64 1   
    65   63   67 1   
    66   63   68 1   
    67   64   65 2   
    68   64   69 1   
    69   69   70 1   
    70   69   76 1   
    71   70   71 1   
    72   70   73 1   
    73   70   77 1   
    74   71   72 2   
    75   71   83 1   
    76   73   74 1   
    77   73   75 1   
    78   73   78 1   
    79   74   80 1   
    80   74   81 1   
    81   74   82 1   
    82   75   79 1   
    83   83   84 1   
    84   83   91 1   
    85   84   85 1   
    86   84   87 1   
    87   84   92 1   
    88   85   86 2   
    89   85  102 1   
    90   87   88 1   
    91   87   89 1   
    92   87   93 1   
    93   88   90 1   
    94   88   94 1   
    95   88   95 1   
    96   89   96 1   
    97   89   97 1   
    98   89   98 1   
    99   90   99 1   
   100   90  100 1   
   101   90  101 1   
   102  102  103 1   
   103  102  110 1   
   104  103  104 1   
   105  103  106 1   
   106  103  111 1   
   107  104  105 2   
   108  104  114 1   
   109  106  107 1   
   110  106  112 1   
   111  106  113 1   
   112  107  108 1   
   113  107  109 1   
   114  114  115 1   
   115  114  125 1   
   116  115  116 1   
   117  115  118 1   
   118  115  126 1   
   119  116  117 2   
   120  116  134 1   
   121  118  119 1   
   122  118  127 1   
   123  118  128 1   
   124  119  120 ar  
   125  119  121 ar  
   126  120  122 ar  
   127  120  129 1   
   128  121  123 ar  
   129  121  130 1   
   130  122  124 ar  
   131  122  131 1   
   132  123  124 ar  
   133  123  132 1   
   134  124  133 1   
   135  134  135 1   
   136  134  140 1   
   137  135  136 1   
   138  135  138 1   
   139  135  141 1   
   140  136  137 2   
   141  136  148 1   
   142  138  139 1   
   143  138  142 1   
   144  138  143 1   
   145  139  140 1   
   146  139  144 1   
   147  139  145 1   
   148  140  146 1   
   149  140  147 1   
   150  148  149 1   
   151  148  157 1   
   152  149  150 1   
   153  149  152 1   
   154  149  158 1   
   155  150  151 2   
   156  150  163 1   
   157  152  153 1   
   158  152  159 1   
   159  152  160 1   
   160  153  154 1   
   161  153  161 1   
   162  153  162 1   
   163  154  155 1   
   164  154  156 1   
   165  163  164 1   
   166  163  168 1   
   167  164  165 1   
   168  164  166 1   
   169  164  167 1   
   170  170  171 1   
   171  170  172 1   
   172  173  174 1   
   173  173  175 1   
   174  176  177 1   
   175  176  178 1   
   176  179  180 1   
   177  179  181 1   
@<TRIPOS>SUBSTRUCTURE
     1 MOL         1 TEMP              0 ****  ****    0 ROOT
