@<TRIPOS>MOLECULE
MOL
  186   183     1     0     0
SMALL
resp


@<TRIPOS>ATOM
      1 C1          9.7330   -0.3240    1.8630 c3        1 MOL     -0.647901
      2 C2          8.5090   -0.4150    0.8960 c         1 MOL      0.808253
      3 O1          7.3330   -0.5460    1.3990 o         1 MOL     -0.668598
      4 H1          9.4020    0.0500    2.8320 hc        1 MOL      0.172536
      5 H2         10.1730   -1.3130    1.9870 hc        1 MOL      0.172536
      6 H3         10.4760    0.3560    1.4460 hc        1 MOL      0.172536
      7 N1          8.7030   -0.3230   -0.4340 n         1 MOL     -0.805488
      8 C3          7.5290   -0.1890   -1.3440 c3        1 MOL      0.406921
      9 C4          6.9720   -1.4870   -1.7940 c         1 MOL      0.492610
     10 O2          7.0620   -1.9190   -2.9110 o         1 MOL     -0.538300
     11 C5          7.9220    0.7590   -2.5150 c3        1 MOL     -0.429182
     12 C6          8.3550    2.1390   -2.1340 c         1 MOL      0.827225
     13 O3          8.0630    2.5710   -1.0150 o         1 MOL     -0.664427
     14 O4          9.1620    2.7360   -2.8350 o         1 MOL     -0.664427
     15 H4          9.6250   -0.0940   -0.7530 hn        1 MOL      0.415623
     16 H5          6.6900    0.2430   -0.8080 h1        1 MOL      0.013462
     17 H6          6.9990    0.8500   -3.1010 hc        1 MOL      0.099750
     18 H7          8.7640    0.2900   -3.0160 hc        1 MOL      0.099750
     19 N2          6.6190   -2.3200   -0.8090 n         1 MOL     -0.294975
     20 C7          6.0160   -3.6810   -0.9570 c3        1 MOL      0.100173
     21 C8          4.5500   -3.6020   -1.5160 c         1 MOL      0.537197
     22 O5          4.2010   -4.4330   -2.3500 o         1 MOL     -0.570029
     23 C9          6.0750   -4.5000    0.2880 c3        1 MOL     -0.214326
     24 C10         7.5800   -4.9200    0.4550 c3        1 MOL      0.091735
     25 C11         7.8450   -5.6780    1.7760 c3        1 MOL     -0.263519
     26 C12         9.3880   -5.9080    2.0000 c3        1 MOL      0.146708
     27 N3          9.8110   -6.5400    3.3080 n4        1 MOL     -0.349486
     28 H8          6.5520   -1.9360    0.1260 hn        1 MOL      0.179134
     29 H9          6.4930   -4.2520   -1.7570 h1        1 MOL      0.045961
     30 H10         5.5280   -5.4510    0.2630 hc        1 MOL      0.079039
     31 H11         5.7750   -3.8010    1.0630 hc        1 MOL      0.079039
     32 H12         8.2200   -4.0490    0.3280 hc        1 MOL      0.015583
     33 H13         7.8730   -5.5870   -0.3620 hc        1 MOL      0.015583
     34 H14         7.3690   -6.6640    1.7040 hc        1 MOL      0.098329
     35 H15         7.5320   -5.1220    2.6590 hc        1 MOL      0.098329
     36 H16        10.0220   -5.0810    1.6940 hx        1 MOL      0.052317
     37 H17         9.5820   -6.6670    1.2330 hx        1 MOL      0.052317
     38 H18         9.4650   -5.9840    4.0790 hn        1 MOL      0.268985
     39 H19         9.4230   -7.4700    3.4390 hn        1 MOL      0.268985
     40 H20        10.8170   -6.5670    3.3190 hn        1 MOL      0.268985
     41 N4          3.5690   -2.8400   -0.9800 n         1 MOL     -0.290467
     42 C13         3.6930   -1.9150    0.0880 c3        1 MOL     -0.259286
     43 C14         3.5550   -0.4170   -0.2640 c         1 MOL      0.495833
     44 O6          2.9430   -0.0870   -1.3000 o         1 MOL     -0.522219
     45 C15         2.5350   -2.2100    1.0760 c3        1 MOL     -0.396169
     46 C16         1.1130   -2.3190    0.5800 c         1 MOL      0.945207
     47 O7          0.8250   -1.9130   -0.6040 o         1 MOL     -0.755452
     48 O8          0.3090   -2.9800    1.2000 o         1 MOL     -0.755452
     49 H21         2.6620   -2.9920   -1.3870 hn        1 MOL      0.310582
     50 H22         4.6020   -2.0450    0.6670 h1        1 MOL      0.215505
     51 H23         2.5410   -1.5350    1.9330 hc        1 MOL      0.079650
     52 H24         2.7510   -3.1470    1.6010 hc        1 MOL      0.079650
     53 N5          4.1410    0.4680    0.5280 n         1 MOL     -0.252771
     54 C17         4.1840    1.9740    0.3140 c3        1 MOL     -0.001545
     55 C18         2.8240    2.5570   -0.0130 c         1 MOL      0.643579
     56 O9          1.7730    1.9880    0.2510 o         1 MOL     -0.727015
     57 H25         4.5810    0.1000    1.3610 hn        1 MOL      0.241839
     58 H26         4.9640    2.2660   -0.3820 h1        1 MOL      0.059491
     59 H27         4.4520    2.4250    1.2720 h1        1 MOL      0.059491
     60 N6          2.8800    3.7470   -0.6190 n         1 MOL     -0.395654
     61 C19         1.9220    4.7300   -1.1020 c3        1 MOL      0.379675
     62 C20         2.2760    6.2240   -0.8090 c         1 MOL      0.334846
     63 O10         3.4250    6.5440   -0.4910 o         1 MOL     -0.510774
     64 C21         1.7080    4.5330   -2.6030 c3        1 MOL     -0.227656
     65 C22         1.6800    3.1080   -3.1450 c         1 MOL      0.608008
     66 O11         2.5000    2.8640   -4.0740 o         1 MOL     -0.601898
     67 O12         1.0330    2.1890   -2.5770 o         1 MOL     -0.601898
     68 H28         3.8560    3.9890   -0.7300 hn        1 MOL      0.230993
     69 H29         1.0370    4.4380   -0.5280 h1        1 MOL     -0.040066
     70 H30         2.5550    4.9920   -3.1250 hc        1 MOL      0.051616
     71 H31         0.7920    5.0210   -2.9240 hc        1 MOL      0.051616
     72 N7          1.2620    7.0690   -0.7000 n         1 MOL     -0.316134
     73 C23        -0.1970    6.8690   -0.8810 c3        1 MOL     -0.254118
     74 C24        -0.7620    6.1400    0.3360 c         1 MOL      0.732084
     75 O13        -0.3430    6.3300    1.4580 o         1 MOL     -0.523426
     76 H32         1.5300    8.0330   -0.5700 hn        1 MOL      0.300771
     77 H33        -0.4700    6.3260   -1.7790 h1        1 MOL      0.108272
     78 H34        -0.5580    7.8950   -0.9680 h1        1 MOL      0.108272
     79 N8         -1.7480    5.3330   -0.0020 n         1 MOL     -0.691963
     80 C25        -2.5120    4.4840    0.9210 c3        1 MOL      0.142237
     81 C26        -1.7560    3.2410    1.3540 c         1 MOL      0.871729
     82 O14        -1.1370    2.6220    0.4720 o         1 MOL     -0.543258
     83 C27        -3.9370    4.2480    0.3210 c3        1 MOL      0.396661
     84 C28        -4.7470    3.2050    1.0870 c3        1 MOL     -0.323587
     85 O15        -3.9320    3.8030   -1.0270 oh        1 MOL     -0.682010
     86 H35        -1.8730    5.0500   -0.9640 hn        1 MOL      0.352203
     87 H36        -2.6540    4.9840    1.8820 h1        1 MOL     -0.003278
     88 H37        -4.4280    5.2300    0.3370 h1        1 MOL     -0.016257
     89 H38        -4.7980    3.8790   -1.4280 ho        1 MOL      0.432382
     90 H39        -4.2740    2.2250    1.0530 hc        1 MOL      0.064029
     91 H40        -4.7270    3.7280    2.0430 hc        1 MOL      0.064029
     92 H41        -5.7370    3.0830    0.6450 hc        1 MOL      0.064029
     93 N9         -1.7220    2.9460    2.6850 n         1 MOL     -0.888228
     94 C29        -0.9750    1.8270    3.3630 c3        1 MOL      0.148119
     95 C30        -1.1690    0.4690    2.5770 c         1 MOL      0.174790
     96 O16        -0.4130    0.1080    1.6650 o         1 MOL     -0.326928
     97 C31         0.5860    2.1090    3.4210 c3        1 MOL      0.355729
     98 C32         0.8260    3.5510    3.9180 c3        1 MOL     -0.003555
     99 C33         1.1740    1.0210    4.4640 c3        1 MOL     -0.474090
    100 C34         2.3280    4.0310    3.9270 c3        1 MOL     -0.042737
    101 H42        -2.3000    3.5290    3.2760 hn        1 MOL      0.376158
    102 H43        -1.3070    1.7060    4.3980 h1        1 MOL      0.054278
    103 H44         1.1000    1.8420    2.5030 hc        1 MOL     -0.037335
    104 H45         0.5200    3.6400    4.9660 hc        1 MOL     -0.013459
    105 H46         0.4310    4.3640    3.2970 hc        1 MOL     -0.013459
    106 H47         0.8050    1.1710    5.4720 hc        1 MOL      0.107939
    107 H48         0.9550    0.0250    4.0870 hc        1 MOL      0.107939
    108 H49         2.2510    1.1930    4.4940 hc        1 MOL      0.107939
    109 H50         2.3370    5.0930    4.2040 hc        1 MOL      0.007927
    110 H51         2.9640    3.4210    4.5700 hc        1 MOL      0.007927
    111 H52         2.8010    3.9120    2.9570 hc        1 MOL      0.007927
    112 N10        -2.3320   -0.1980    2.8620 n         1 MOL     -0.122524
    113 C35        -2.7010   -1.4820    2.3960 c3        1 MOL     -0.524421
    114 C36        -4.1510   -1.6620    2.0270 c         1 MOL      0.627745
    115 O17        -4.4340   -2.6380    1.3610 o         1 MOL     -0.564424
    116 C37        -2.1120   -2.6020    3.3530 c3        1 MOL      0.418283
    117 C38        -2.8100   -2.7410    4.6950 c3        1 MOL     -0.065674
    118 O18        -0.7910   -2.3120    3.7320 oh        1 MOL     -0.581645
    119 H53        -2.9140    0.2560    3.5470 hn        1 MOL      0.257798
    120 H54        -2.1560   -1.6820    1.4730 h1        1 MOL      0.179275
    121 H55        -2.2080   -3.5870    2.9110 h1        1 MOL      0.012509
    122 H56        -0.3460   -2.2890    2.8880 ho        1 MOL      0.364150
    123 H57        -2.5060   -1.9140    5.3350 hc        1 MOL     -0.003054
    124 H58        -3.8680   -2.6850    4.4470 hc        1 MOL     -0.003054
    125 H59        -2.6970   -3.6960    5.2020 hc        1 MOL     -0.003054
    126 N11        -4.9740   -0.7350    2.4070 n         1 MOL     -0.107722
    127 C39        -6.3930   -0.8180    2.2090 c3        1 MOL     -0.078472
    128 C40        -6.7180   -0.8130    0.7150 c         1 MOL      0.441094
    129 O19        -6.6420    0.1750   -0.0170 o         1 MOL     -0.421791
    130 C41        -7.1040    0.3800    2.9070 c3        1 MOL      0.227153
    131 C42        -7.8730   -0.1060    4.1500 c3        1 MOL     -0.204279
    132 O20        -6.1940    1.3770    3.4390 oh        1 MOL     -0.593787
    133 H60        -4.5070    0.0940    2.7510 hn        1 MOL      0.152111
    134 H61        -6.7910   -1.7090    2.6770 h1        1 MOL      0.077623
    135 H62        -7.8650    0.9060    2.3260 h1        1 MOL      0.049494
    136 H63        -6.6720    2.1940    3.5890 ho        1 MOL      0.399959
    137 H64        -7.1260   -0.3760    4.8850 hc        1 MOL      0.051805
    138 H65        -8.6310    0.5610    4.5590 hc        1 MOL      0.051805
    139 H66        -8.4880   -0.9820    3.9220 hc        1 MOL      0.051805
    140 N12        -7.2380   -2.0020    0.2160 n         1 MOL     -0.509581
    141 C43        -7.3390   -2.3630   -1.2130 c3        1 MOL      0.319111
    142 C44        -6.1220   -1.9740   -2.0700 c         1 MOL      0.348153
    143 O21        -6.1930   -1.1690   -2.9690 o         1 MOL     -0.494938
    144 C45        -8.6240   -1.8320   -1.8150 c3        1 MOL     -0.466426
    145 C46        -9.9900   -2.2630   -1.2390 c3        1 MOL     -0.030211
    146 C47       -11.0860   -1.8160   -2.2300 c3        1 MOL      0.051436
    147 C48       -12.5260   -2.2380   -1.9050 c3        1 MOL     -0.121807
    148 N13       -12.6400   -3.7260   -1.9090 n4        1 MOL     -0.165764
    149 H67        -7.3220   -2.8010    0.8350 hn        1 MOL      0.268989
    150 H68        -7.3630   -3.4450   -1.2840 h1        1 MOL     -0.001649
    151 H69        -8.6480   -2.0820   -2.8840 hc        1 MOL      0.171724
    152 H70        -8.5770   -0.7640   -1.6180 hc        1 MOL      0.171724
    153 H71       -10.1650   -1.7210   -0.3100 hc        1 MOL      0.029654
    154 H72       -10.1080   -3.3300   -1.0000 hc        1 MOL      0.029654
    155 H73       -10.8210   -2.0140   -3.2660 hc        1 MOL      0.043096
    156 H74       -11.0140   -0.7410   -2.3690 hc        1 MOL      0.043096
    157 H75       -13.2310   -1.7970   -2.6120 hx        1 MOL      0.105709
    158 H76       -12.8340   -1.8350   -0.9430 hx        1 MOL      0.105709
    159 H77       -13.6080   -4.0000   -1.8110 hn        1 MOL      0.199008
    160 H78       -12.3570   -4.1330   -2.7880 hn        1 MOL      0.199008
    161 H79       -12.0960   -4.0050   -1.1140 hn        1 MOL      0.199008
    162 N14        -5.0020   -2.4320   -1.5720 n         1 MOL     -0.319133
    163 C49        -3.7140   -1.9890   -2.0440 c3        1 MOL      0.192533
    164 C50        -2.4780   -2.1340   -1.1100 c         1 MOL      0.081192
    165 O22        -1.9710   -1.0780   -0.7060 o         1 MOL     -0.403183
    166 C51        -3.3910   -2.4780   -3.4880 c3        1 MOL     -0.126274
    167 C52        -1.9230   -2.4380   -3.9760 c3        1 MOL     -0.015498
    168 C53        -1.3640   -1.0630   -4.0880 c         1 MOL      0.633155
    169 O23        -0.6670   -0.6170   -3.1180 o         1 MOL     -0.633547
    170 O24        -1.4640   -0.4130   -5.1910 o         1 MOL     -0.633547
    171 H80        -5.0670   -3.1590   -0.8770 hn        1 MOL      0.247001
    172 H81        -3.9480   -0.9320   -2.1470 h1        1 MOL      0.129340
    173 H82        -3.9930   -1.7890   -4.0790 hc        1 MOL      0.017662
    174 H83        -3.8450   -3.4700   -3.5290 hc        1 MOL      0.017662
    175 H84        -1.8170   -2.9390   -4.9420 hc        1 MOL      0.022137
    176 H85        -1.2810   -2.9740   -3.2920 hc        1 MOL      0.022137
    177 N15        -2.0660   -3.2830   -0.5440 n         1 MOL     -0.064252
    178 C54        -2.4120   -4.7290   -0.9100 c3        1 MOL     -0.293962
    179 H86        -2.5100   -4.8160   -1.9930 h1        1 MOL      0.101511
    180 H87        -1.6190   -5.3920   -0.5630 h1        1 MOL      0.101511
    181 H88        -3.3530   -5.0090   -0.4370 h1        1 MOL      0.101511
    182 H89        -1.2290   -3.3070    0.0260 hn        1 MOL      0.314374
    183 Ca1        -0.0330    0.5820   -1.0480 Ca        1 MOL      1.695538
    184 O25        -2.3280    1.6950   -2.0000 oh        1 MOL     -1.153008
    185 H90        -2.8000    1.4650   -2.8020 ho        1 MOL      0.511992
    186 H91        -2.8380    2.4020   -1.6180 ho        1 MOL      0.511992
@<TRIPOS>BOND
     1    1    2 1   
     2    1    4 1   
     3    1    5 1   
     4    1    6 1   
     5    2    3 2   
     6    2    7 1   
     7    7    8 1   
     8    7   15 1   
     9    8    9 1   
    10    8   11 1   
    11    8   16 1   
    12    9   10 2   
    13    9   19 1   
    14   11   12 1   
    15   11   17 1   
    16   11   18 1   
    17   12   13 1   
    18   12   14 1   
    19   19   20 1   
    20   19   28 1   
    21   20   21 1   
    22   20   23 1   
    23   20   29 1   
    24   21   22 2   
    25   21   41 1   
    26   23   24 1   
    27   23   30 1   
    28   23   31 1   
    29   24   25 1   
    30   24   32 1   
    31   24   33 1   
    32   25   26 1   
    33   25   34 1   
    34   25   35 1   
    35   26   27 1   
    36   26   36 1   
    37   26   37 1   
    38   27   38 1   
    39   27   39 1   
    40   27   40 1   
    41   41   42 1   
    42   41   49 1   
    43   42   43 1   
    44   42   45 1   
    45   42   50 1   
    46   43   44 2   
    47   43   53 1   
    48   45   46 1   
    49   45   51 1   
    50   45   52 1   
    51   46   47 1   
    52   46   48 1   
    53   53   54 1   
    54   53   57 1   
    55   54   55 1   
    56   54   58 1   
    57   54   59 1   
    58   55   56 2   
    59   55   60 1   
    60   60   61 1   
    61   60   68 1   
    62   61   62 1   
    63   61   64 1   
    64   61   69 1   
    65   62   63 2   
    66   62   72 1   
    67   64   65 1   
    68   64   70 1   
    69   64   71 1   
    70   65   66 1   
    71   65   67 1   
    72   72   73 1   
    73   72   76 1   
    74   73   74 1   
    75   73   77 1   
    76   73   78 1   
    77   74   75 2   
    78   74   79 1   
    79   79   80 1   
    80   79   86 1   
    81   80   81 1   
    82   80   83 1   
    83   80   87 1   
    84   81   82 2   
    85   81   93 1   
    86   83   84 1   
    87   83   85 1   
    88   83   88 1   
    89   84   90 1   
    90   84   91 1   
    91   84   92 1   
    92   85   89 1   
    93   93   94 1   
    94   93  101 1   
    95   94   95 1   
    96   94   97 1   
    97   94  102 1   
    98   95   96 2   
    99   95  112 1   
   100   97   98 1   
   101   97   99 1   
   102   97  103 1   
   103   98  100 1   
   104   98  104 1   
   105   98  105 1   
   106   99  106 1   
   107   99  107 1   
   108   99  108 1   
   109  100  109 1   
   110  100  110 1   
   111  100  111 1   
   112  112  113 1   
   113  112  119 1   
   114  113  114 1   
   115  113  116 1   
   116  113  120 1   
   117  114  115 2   
   118  114  126 1   
   119  116  117 1   
   120  116  118 1   
   121  116  121 1   
   122  117  123 1   
   123  117  124 1   
   124  117  125 1   
   125  118  122 1   
   126  126  127 1   
   127  126  133 1   
   128  127  128 1   
   129  127  130 1   
   130  127  134 1   
   131  128  129 2   
   132  128  140 1   
   133  130  131 1   
   134  130  132 1   
   135  130  135 1   
   136  131  137 1   
   137  131  138 1   
   138  131  139 1   
   139  132  136 1   
   140  140  141 1   
   141  140  149 1   
   142  141  142 1   
   143  141  144 1   
   144  141  150 1   
   145  142  143 2   
   146  142  162 1   
   147  144  145 1   
   148  144  151 1   
   149  144  152 1   
   150  145  146 1   
   151  145  153 1   
   152  145  154 1   
   153  146  147 1   
   154  146  155 1   
   155  146  156 1   
   156  147  148 1   
   157  147  157 1   
   158  147  158 1   
   159  148  159 1   
   160  148  160 1   
   161  148  161 1   
   162  162  163 1   
   163  162  171 1   
   164  163  164 1   
   165  163  166 1   
   166  163  172 1   
   167  164  165 2   
   168  164  177 1   
   169  166  167 1   
   170  166  173 1   
   171  166  174 1   
   172  167  168 1   
   173  167  175 1   
   174  167  176 1   
   175  168  169 1   
   176  168  170 1   
   177  177  178 1   
   178  177  182 1   
   179  178  179 1   
   180  178  180 1   
   181  178  181 1   
   182  184  185 1   
   183  184  186 1   
@<TRIPOS>SUBSTRUCTURE
     1 MOL         1 TEMP              0 ****  ****    0 ROOT
