@<TRIPOS>MOLECULE
MOL
  195   189     1     0     0
SMALL
resp


@<TRIPOS>ATOM
      1 C1         12.2450    3.6210   -2.7640 c3        1 MOL     -0.389027
      2 C2         11.7570    2.7890   -1.5480 c         1 MOL      0.597215
      3 O1         12.1760    1.6680   -1.2280 o         1 MOL     -0.609616
      4 H1         12.2840    2.9840   -3.6480 hc        1 MOL      0.110539
      5 H2         11.5550    4.4460   -2.9420 hc        1 MOL      0.110539
      6 H3         13.2390    4.0170   -2.5590 hc        1 MOL      0.110539
      7 N1         10.8290    3.3680   -0.8440 n         1 MOL     -0.096602
      8 C3         10.2710    2.8070    0.3610 c3        1 MOL     -0.066469
      9 C4          8.9280    2.1230    0.1950 c         1 MOL      0.621608
     10 O2          8.0620    2.5970   -0.5460 o         1 MOL     -0.701153
     11 C5         10.2190    3.8770    1.4600 c3        1 MOL     -0.253917
     12 C6          9.6370    5.2370    1.0650 c         1 MOL      0.746607
     13 O3          9.1210    5.3710   -0.1140 o         1 MOL     -0.657692
     14 O4          9.4170    6.1680    1.8540 o         1 MOL     -0.657692
     15 H4         10.4810    4.2630   -1.1560 hn        1 MOL     -0.029701
     16 H5         10.9660    2.0450    0.7240 h1        1 MOL      0.099790
     17 H6         11.2280    3.9840    1.8540 hc        1 MOL      0.077455
     18 H7          9.4480    3.5920    2.1940 hc        1 MOL      0.077455
     19 N2          8.6800    1.0890    0.9800 n         1 MOL     -0.587454
     20 C7          7.5710    0.1620    0.6700 c3        1 MOL      0.109836
     21 C8          6.1990    0.4250    1.3880 c         1 MOL      0.960993
     22 O5          6.1350    0.6890    2.5900 o         1 MOL     -0.633920
     23 C9          8.0870   -1.2790    1.0740 c3        1 MOL     -0.162517
     24 C10         7.2280   -2.4180    0.6100 c3        1 MOL      0.116785
     25 C11         7.7010   -3.7000    1.2620 c3        1 MOL     -0.057526
     26 C12         7.1100   -4.8670    0.4760 c3        1 MOL      0.211915
     27 N3          7.2380   -6.0960    1.3070 n4        1 MOL     -0.332621
     28 H8          9.2470    0.8420    1.7830 hn        1 MOL      0.321866
     29 H9          7.4060    0.1390   -0.4090 h1        1 MOL      0.121261
     30 H10         8.1070   -1.3000    2.1710 hc        1 MOL      0.039693
     31 H11         9.0850   -1.4270    0.6780 hc        1 MOL      0.039693
     32 H12         7.3190   -2.4100   -0.4770 hc        1 MOL     -0.013653
     33 H13         6.2420   -2.1700    1.0050 hc        1 MOL     -0.013653
     34 H14         7.4180   -3.6850    2.3090 hc        1 MOL      0.034786
     35 H15         8.7770   -3.7890    1.0760 hc        1 MOL      0.034786
     36 H16         7.6080   -5.0300   -0.4680 hx        1 MOL      0.022121
     37 H17         6.0750   -4.6800    0.1910 hx        1 MOL      0.022121
     38 H18         6.8830   -5.9180    2.2370 hn        1 MOL      0.283557
     39 H19         6.8380   -6.8670    0.7930 hn        1 MOL      0.283557
     40 H20         8.1970   -6.3770    1.4840 hn        1 MOL      0.283557
     41 N4          5.0600    0.3890    0.6060 n         1 MOL     -0.917417
     42 C13         3.6780    0.6420    1.0730 c3        1 MOL      0.472676
     43 C14         2.7460    0.0700   -0.0340 c         1 MOL      0.531594
     44 O6          3.0150    0.1500   -1.2410 o         1 MOL     -0.522298
     45 C15         3.4220    2.1420    1.3210 c3        1 MOL     -0.180503
     46 C16         3.8080    3.1370    0.2080 c         1 MOL      0.827360
     47 O7          4.9000    3.0450   -0.3630 o         1 MOL     -0.756344
     48 O8          2.8700    3.8720   -0.1810 o         1 MOL     -0.756344
     49 H21         5.1220    0.2390   -0.3880 hn        1 MOL      0.281301
     50 H22         3.4540    0.1110    2.0020 h1        1 MOL     -0.012158
     51 H23         3.8320    2.4430    2.2880 hc        1 MOL      0.037312
     52 H24         2.3690    2.1670    1.6140 hc        1 MOL      0.037312
     53 N5          1.6250   -0.5950    0.2030 n         1 MOL     -0.510483
     54 C17         1.0980   -1.0970    1.5100 c3        1 MOL     -0.101275
     55 C18         1.6060   -2.5040    1.9680 c         1 MOL      0.649171
     56 O9          2.8190   -2.7190    1.8640 o         1 MOL     -0.544915
     57 H25         1.2280   -0.9120   -0.6800 hn        1 MOL      0.305910
     58 H26         0.0150   -1.2120    1.4200 h1        1 MOL      0.099376
     59 H27         1.2050   -0.4190    2.3650 h1        1 MOL      0.099376
     60 N6          0.7010   -3.3590    2.4520 n         1 MOL     -0.604286
     61 C19         1.1070   -4.6020    3.0920 c3        1 MOL      0.140301
     62 C20         0.3970   -5.7640    2.4030 c         1 MOL      0.450753
     63 O10        -0.8460   -5.8320    2.3840 o         1 MOL     -0.476516
     64 C21         0.8650   -4.4550    4.5860 c3        1 MOL     -0.160951
     65 C22         1.2670   -5.6330    5.4480 c         1 MOL      0.763906
     66 O11         0.8570   -5.6410    6.6300 o         1 MOL     -0.704791
     67 O12         2.0950   -6.4280    5.0260 o         1 MOL     -0.704791
     68 H28        -0.2980   -3.2330    2.4250 hn        1 MOL      0.312097
     69 H29         2.1680   -4.7610    2.9400 h1        1 MOL     -0.000205
     70 H30        -0.2190   -4.4510    4.7530 hc        1 MOL      0.036095
     71 H31         1.3100   -3.5120    4.9170 hc        1 MOL      0.036095
     72 N7          1.2230   -6.5070    1.6170 n         1 MOL     -0.336171
     73 C23         0.7330   -7.5970    0.7800 c3        1 MOL     -0.240387
     74 C24         0.2790   -7.2330   -0.5810 c         1 MOL      0.588199
     75 O13        -0.5020   -8.0070   -1.0870 o         1 MOL     -0.549212
     76 H32         2.2110   -6.2840    1.6890 hn        1 MOL      0.268188
     77 H33        -0.0750   -8.1240    1.2960 h1        1 MOL      0.133950
     78 H34         1.5790   -8.2520    0.5490 h1        1 MOL      0.133950
     79 N8          0.6850   -6.0530   -1.1200 n         1 MOL     -0.347493
     80 C25         0.3550   -5.4170   -2.4130 c3        1 MOL      0.086011
     81 C26         0.1270   -3.8640   -2.1140 c         1 MOL      0.271457
     82 O14         0.5910   -3.4050   -1.0390 o         1 MOL     -0.452848
     83 C27         1.4310   -5.6600   -3.4960 c3        1 MOL      0.316338
     84 C28         1.4370   -7.0930   -3.8730 c3        1 MOL     -0.416403
     85 O15         1.0390   -4.9920   -4.6090 oh        1 MOL     -0.598591
     86 H35         1.3700   -5.5570   -0.5670 hn        1 MOL      0.207922
     87 H36        -0.6170   -5.7640   -2.7430 h1        1 MOL      0.098660
     88 H37         2.4270   -5.4750   -3.0790 h1        1 MOL     -0.010612
     89 H38         1.6710   -5.1910   -5.3030 ho        1 MOL      0.411952
     90 H39         2.0670   -7.2570   -4.7480 hc        1 MOL      0.102651
     91 H40         1.8440   -7.6500   -3.0310 hc        1 MOL      0.102651
     92 H41         0.3920   -7.3810   -3.9130 hc        1 MOL      0.102651
     93 N9         -0.4990   -3.0090   -2.9550 n         1 MOL     -0.197028
     94 C29        -0.6350   -1.5720   -2.6740 c3        1 MOL     -0.041740
     95 C30        -1.8610   -1.1790   -1.8130 c         1 MOL      0.583776
     96 O16        -1.7730   -0.2670   -1.0220 o         1 MOL     -0.491432
     97 C31        -0.5640   -0.9410   -4.0750 c3        1 MOL      0.098160
     98 C32         0.6640   -1.3060   -4.9250 c3        1 MOL      0.046256
     99 C33        -0.5520    0.5900   -4.0120 c3        1 MOL     -0.522958
    100 C34         1.9480   -1.6310   -4.1780 c3        1 MOL     -0.008020
    101 H42        -0.9710   -3.3740   -3.7610 hn        1 MOL      0.232952
    102 H43         0.1910   -1.1470   -2.0970 h1        1 MOL      0.119401
    103 H44        -1.4930   -1.1260   -4.6110 hc        1 MOL      0.013889
    104 H45         0.8240   -0.5430   -5.6770 hc        1 MOL     -0.020084
    105 H46         0.3570   -2.1870   -5.5000 hc        1 MOL     -0.020084
    106 H47        -1.3150    0.9780   -3.3410 hc        1 MOL      0.143870
    107 H48         0.4010    1.0140   -3.7010 hc        1 MOL      0.143870
    108 H49        -0.7800    0.9620   -5.0150 hc        1 MOL      0.143870
    109 H50         2.8160   -1.3040   -4.7460 hc        1 MOL     -0.005449
    110 H51         1.9640   -1.0980   -3.2240 hc        1 MOL     -0.005449
    111 H52         2.1200   -2.7090   -4.1530 hc        1 MOL     -0.005449
    112 N10        -3.0070   -1.9100   -1.8570 n         1 MOL     -0.527171
    113 C35        -4.0930   -1.8600   -0.8060 c3        1 MOL      0.101725
    114 C36        -5.3940   -2.4390   -1.3280 c         1 MOL      0.574792
    115 O17        -5.4500   -3.2890   -2.2320 o         1 MOL     -0.526590
    116 C37        -3.7160   -2.6830    0.4570 c3        1 MOL      0.363694
    117 C38        -3.1690   -4.0570    0.1650 c3        1 MOL     -0.327252
    118 O18        -2.8380   -1.9650    1.3100 oh        1 MOL     -0.630634
    119 H53        -3.0620   -2.5940   -2.5960 hn        1 MOL      0.233359
    120 H54        -4.2310   -0.8120   -0.5410 h1        1 MOL      0.074404
    121 H55        -4.6750   -2.7690    0.9670 h1        1 MOL     -0.037998
    122 H56        -2.6640   -2.5770    2.0290 ho        1 MOL      0.399199
    123 H57        -3.5130   -4.7060    0.9600 hc        1 MOL      0.091786
    124 H58        -3.5050   -4.3680   -0.8290 hc        1 MOL      0.091786
    125 H59        -2.0820   -3.9860    0.1000 hc        1 MOL      0.091786
    126 N11        -6.4860   -1.9630   -0.7940 n         1 MOL     -0.592668
    127 C39        -7.8810   -2.1320   -1.2810 c3        1 MOL      0.039400
    128 C40        -8.5170   -0.7520   -1.3900 c         1 MOL      0.760331
    129 O19        -8.9920   -0.4610   -2.4550 o         1 MOL     -0.584074
    130 C41        -8.5840   -3.1390   -0.3800 c3        1 MOL      0.279976
    131 C42       -10.0290   -3.4740   -0.8620 c3        1 MOL     -0.417760
    132 O20        -8.7490   -2.6090    0.8870 oh        1 MOL     -0.600662
    133 H60        -6.3530   -1.3010   -0.0330 hn        1 MOL      0.291190
    134 H61        -7.9960   -2.5100   -2.2970 h1        1 MOL      0.092002
    135 H62        -8.0490   -4.0880   -0.3970 h1        1 MOL      0.057409
    136 H63        -8.4450   -3.2870    1.4890 ho        1 MOL      0.402177
    137 H64        -9.9020   -3.9930   -1.8160 hc        1 MOL      0.104381
    138 H65       -10.5160   -4.1790   -0.1860 hc        1 MOL      0.104381
    139 H66       -10.6310   -2.5650   -0.8740 hc        1 MOL      0.104381
    140 N12        -8.4390    0.0900   -0.3230 n         1 MOL     -0.598223
    141 C43        -9.0710    1.3600   -0.1250 c3        1 MOL      0.078633
    142 C44        -8.3250    2.2170    0.8260 c         1 MOL      0.493758
    143 O21        -7.6840    1.7970    1.7800 o         1 MOL     -0.485891
    144 C45       -10.4640    0.9700    0.3580 c3        1 MOL     -0.105148
    145 C46       -11.4870    2.1260    0.2410 c3        1 MOL     -0.058722
    146 C47       -12.9560    1.6450    0.3100 c3        1 MOL      0.043669
    147 C48       -13.9210    2.8550    0.1160 c3        1 MOL     -0.049985
    148 N13       -15.2980    2.4180    0.2800 n4        1 MOL     -0.152122
    149 H67        -8.1360   -0.2920    0.5590 hn        1 MOL      0.270666
    150 H68        -9.1120    1.8320   -1.1010 h1        1 MOL      0.087862
    151 H69       -10.5190    0.6600    1.4000 hc        1 MOL      0.092355
    152 H70       -10.8640    0.1000   -0.1610 hc        1 MOL      0.092355
    153 H71       -11.4050    2.5280   -0.7750 hc        1 MOL      0.023684
    154 H72       -11.2640    2.8490    1.0200 hc        1 MOL      0.023684
    155 H73       -12.9810    1.2350    1.3260 hc        1 MOL      0.012349
    156 H74       -13.2000    0.8140   -0.3630 hc        1 MOL      0.012349
    157 H75       -13.6960    3.2480   -0.8730 hx        1 MOL      0.103031
    158 H76       -13.7810    3.6000    0.9100 hx        1 MOL      0.103031
    159 H77       -15.5800    1.6590   -0.3270 hn        1 MOL      0.222151
    160 H78       -15.4960    2.1760    1.2330 hn        1 MOL      0.222151
    161 H79       -16.0170    3.1010    0.0710 hn        1 MOL      0.222151
    162 N14        -8.4480    3.5410    0.6280 n         1 MOL     -0.531074
    163 C49        -7.6630    4.5520    1.3370 c3        1 MOL      0.309204
    164 C50        -6.1650    4.2410    1.3730 c         1 MOL      0.350554
    165 O22        -5.5480    4.4450    2.4070 o         1 MOL     -0.497702
    166 C51        -7.8600    6.0120    0.8250 c3        1 MOL      0.087009
    167 C52        -9.2760    6.5740    1.0950 c3        1 MOL     -0.188767
    168 C53        -9.1750    8.1410    1.2290 c         1 MOL      0.663999
    169 O23        -9.4960    8.8870    0.2720 o         1 MOL     -0.631966
    170 O24        -8.8590    8.6690    2.3440 o         1 MOL     -0.631966
    171 H80        -8.9680    3.7830   -0.2090 hn        1 MOL      0.279468
    172 H81        -7.9450    4.6490    2.3870 h1        1 MOL      0.047223
    173 H82        -7.7160    6.0970   -0.2500 hc        1 MOL     -0.005787
    174 H83        -7.1810    6.6260    1.4070 hc        1 MOL     -0.005787
    175 H84        -9.6730    6.0890    1.9950 hc        1 MOL     -0.008635
    176 H85        -9.9340    6.2520    0.2800 hc        1 MOL     -0.008635
    177 N15        -5.5410    3.7110    0.2930 n         1 MOL     -0.351104
    178 C54        -5.8110    3.9870   -1.1650 c3        1 MOL     -0.071119
    179 H86        -5.6480    3.0780   -1.7430 h1        1 MOL      0.056304
    180 H87        -6.8430    4.3160   -1.2890 h1        1 MOL      0.056304
    181 H88        -5.1360    4.7670   -1.5180 h1        1 MOL      0.056304
    182 H89        -4.5950    3.4090    0.4890 hn        1 MOL      0.300032
    183 Ca1         6.8590    4.8130   -1.1710 Ca        1 MOL      1.799672
    184 O25         6.9750    4.2770    1.8600 oh        1 MOL     -0.903315
    185 H90         7.4280    3.5920    2.3450 ho        1 MOL      0.436120
    186 H91         6.7000    4.9070    2.5230 ho        1 MOL      0.436120
    187 O26         5.5920    6.5910    0.6950 oh        1 MOL     -0.903315
    188 H92         4.6510    6.5900    0.5030 ho        1 MOL      0.436120
    189 H93         5.7700    7.4680    1.0210 ho        1 MOL      0.436120
    190 O27         6.4230    7.5750   -2.2160 oh        1 MOL     -0.903315
    191 H94         7.1360    8.2260   -2.1910 ho        1 MOL      0.436120
    192 H95         5.6710    8.0620   -2.5520 ho        1 MOL      0.436120
    193 O28         4.2700    5.5270   -1.6600 oh        1 MOL     -0.903315
    194 H96         3.8330    4.8920   -1.1020 ho        1 MOL      0.436120
    195 H97         3.6870    6.2790   -1.6700 ho        1 MOL      0.436120
@<TRIPOS>BOND
     1    1    2 1   
     2    1    4 1   
     3    1    5 1   
     4    1    6 1   
     5    2    3 2   
     6    2    7 1   
     7    7    8 1   
     8    7   15 1   
     9    8    9 1   
    10    8   11 1   
    11    8   16 1   
    12    9   10 2   
    13    9   19 1   
    14   11   12 1   
    15   11   17 1   
    16   11   18 1   
    17   12   13 1   
    18   12   14 1   
    19   19   20 1   
    20   19   28 1   
    21   20   21 1   
    22   20   23 1   
    23   20   29 1   
    24   21   22 2   
    25   21   41 1   
    26   23   24 1   
    27   23   30 1   
    28   23   31 1   
    29   24   25 1   
    30   24   32 1   
    31   24   33 1   
    32   25   26 1   
    33   25   34 1   
    34   25   35 1   
    35   26   27 1   
    36   26   36 1   
    37   26   37 1   
    38   27   38 1   
    39   27   39 1   
    40   27   40 1   
    41   41   42 1   
    42   41   49 1   
    43   42   43 1   
    44   42   45 1   
    45   42   50 1   
    46   43   44 2   
    47   43   53 1   
    48   45   46 1   
    49   45   51 1   
    50   45   52 1   
    51   46   47 1   
    52   46   48 1   
    53   53   54 1   
    54   53   57 1   
    55   54   55 1   
    56   54   58 1   
    57   54   59 1   
    58   55   56 2   
    59   55   60 1   
    60   60   61 1   
    61   60   68 1   
    62   61   62 1   
    63   61   64 1   
    64   61   69 1   
    65   62   63 2   
    66   62   72 1   
    67   64   65 1   
    68   64   70 1   
    69   64   71 1   
    70   65   66 1   
    71   65   67 1   
    72   72   73 1   
    73   72   76 1   
    74   73   74 1   
    75   73   77 1   
    76   73   78 1   
    77   74   75 2   
    78   74   79 1   
    79   79   80 1   
    80   79   86 1   
    81   80   81 1   
    82   80   83 1   
    83   80   87 1   
    84   81   82 2   
    85   81   93 1   
    86   83   84 1   
    87   83   85 1   
    88   83   88 1   
    89   84   90 1   
    90   84   91 1   
    91   84   92 1   
    92   85   89 1   
    93   93   94 1   
    94   93  101 1   
    95   94   95 1   
    96   94   97 1   
    97   94  102 1   
    98   95   96 2   
    99   95  112 1   
   100   97   98 1   
   101   97   99 1   
   102   97  103 1   
   103   98  100 1   
   104   98  104 1   
   105   98  105 1   
   106   99  106 1   
   107   99  107 1   
   108   99  108 1   
   109  100  109 1   
   110  100  110 1   
   111  100  111 1   
   112  112  113 1   
   113  112  119 1   
   114  113  114 1   
   115  113  116 1   
   116  113  120 1   
   117  114  115 2   
   118  114  126 1   
   119  116  117 1   
   120  116  118 1   
   121  116  121 1   
   122  117  123 1   
   123  117  124 1   
   124  117  125 1   
   125  118  122 1   
   126  126  127 1   
   127  126  133 1   
   128  127  128 1   
   129  127  130 1   
   130  127  134 1   
   131  128  129 2   
   132  128  140 1   
   133  130  131 1   
   134  130  132 1   
   135  130  135 1   
   136  131  137 1   
   137  131  138 1   
   138  131  139 1   
   139  132  136 1   
   140  140  141 1   
   141  140  149 1   
   142  141  142 1   
   143  141  144 1   
   144  141  150 1   
   145  142  143 2   
   146  142  162 1   
   147  144  145 1   
   148  144  151 1   
   149  144  152 1   
   150  145  146 1   
   151  145  153 1   
   152  145  154 1   
   153  146  147 1   
   154  146  155 1   
   155  146  156 1   
   156  147  148 1   
   157  147  157 1   
   158  147  158 1   
   159  148  159 1   
   160  148  160 1   
   161  148  161 1   
   162  162  163 1   
   163  162  171 1   
   164  163  164 1   
   165  163  166 1   
   166  163  172 1   
   167  164  165 2   
   168  164  177 1   
   169  166  167 1   
   170  166  173 1   
   171  166  174 1   
   172  167  168 1   
   173  167  175 1   
   174  167  176 1   
   175  168  169 1   
   176  168  170 1   
   177  177  178 1   
   178  177  182 1   
   179  178  179 1   
   180  178  180 1   
   181  178  181 1   
   182  184  185 1   
   183  184  186 1   
   184  187  188 1   
   185  187  189 1   
   186  190  191 1   
   187  190  192 1   
   188  193  194 1   
   189  193  195 1   
@<TRIPOS>SUBSTRUCTURE
     1 MOL         1 TEMP              0 ****  ****    0 ROOT
