@<TRIPOS>MOLECULE
MOL
  192   187     1     0     0
SMALL
resp


@<TRIPOS>ATOM
      1 C1         11.9780    5.2900   -1.4490 c3        1 MOL     -0.372170
      2 C2         11.7550    3.9770   -0.7530 c         1 MOL      0.581560
      3 O1         12.7360    3.3050   -0.4050 o         1 MOL     -0.572114
      4 H1         12.8180    5.1960   -2.1380 hc        1 MOL      0.102100
      5 H2         11.0820    5.5630   -2.0050 hc        1 MOL      0.102100
      6 H3         12.1980    6.0610   -0.7100 hc        1 MOL      0.102100
      7 N1         10.5480    3.6210   -0.3990 n         1 MOL     -0.080197
      8 C3         10.1670    2.4920    0.3410 c3        1 MOL     -0.514762
      9 C4          8.8510    1.7980   -0.2430 c         1 MOL      0.621381
     10 O2          7.9300    2.4740   -0.6010 o         1 MOL     -0.641806
     11 C5          9.9400    2.8950    1.7850 c3        1 MOL      0.297723
     12 C6          9.2360    4.2180    2.1130 c         1 MOL      0.568999
     13 O3          9.3140    4.6490    3.3070 o         1 MOL     -0.663721
     14 O4          8.6850    4.8420    1.1700 o         1 MOL     -0.663721
     15 H4          9.7560    4.2590   -0.3930 hn        1 MOL      0.049498
     16 H5         10.8660    1.6610    0.2110 h1        1 MOL      0.126298
     17 H6         10.9450    2.9520    2.2190 hc        1 MOL     -0.013396
     18 H7          9.5370    2.0990    2.3970 hc        1 MOL     -0.013396
     19 N2          8.8750    0.4620   -0.1380 n         1 MOL     -0.372996
     20 C7          7.9860   -0.5510   -0.7740 c3        1 MOL      0.164095
     21 C8          6.8590   -1.1080    0.1120 c         1 MOL      0.465325
     22 O5          6.4060   -2.1400   -0.2250 o         1 MOL     -0.490052
     23 C9          8.8370   -1.6010   -1.4440 c3        1 MOL     -0.250956
     24 C10         8.4820   -2.2770   -2.7590 c3        1 MOL      0.289424
     25 C11         9.5660   -3.2370   -3.3040 c3        1 MOL     -0.189748
     26 C12         9.0550   -4.2780   -4.3390 c3        1 MOL     -0.048805
     27 N3          8.2510   -3.5930   -5.3760 n4        1 MOL     -0.090722
     28 H8          9.7490    0.0870    0.1920 hn        1 MOL      0.273780
     29 H9          7.3860    0.0100   -1.4800 h1        1 MOL      0.026976
     30 H10         9.0220   -2.3690   -0.6910 hc        1 MOL      0.064432
     31 H11         9.8400   -1.2390   -1.6770 hc        1 MOL      0.064432
     32 H12         8.2550   -1.4920   -3.4740 hc        1 MOL     -0.052988
     33 H13         7.5310   -2.8000   -2.6810 hc        1 MOL     -0.052988
     34 H14         9.8650   -3.8400   -2.4380 hc        1 MOL      0.082398
     35 H15        10.3790   -2.6850   -3.7720 hc        1 MOL      0.082398
     36 H16         8.4220   -5.0460   -3.8920 hx        1 MOL      0.108426
     37 H17         9.9840   -4.6660   -4.7540 hx        1 MOL      0.108426
     38 H18         7.2880   -3.4310   -5.1120 hn        1 MOL      0.210287
     39 H19         8.6440   -2.8340   -5.9060 hn        1 MOL      0.210287
     40 H20         8.0390   -4.2940   -6.0660 hn        1 MOL      0.210287
     41 N4          6.4370   -0.3600    1.1730 n         1 MOL     -0.431815
     42 C13         5.2520   -0.4750    1.9610 c3        1 MOL      0.170131
     43 C14         3.9460   -0.4530    1.1090 c         1 MOL      0.251463
     44 O6          3.8810   -0.0250   -0.0400 o         1 MOL     -0.506752
     45 C15         5.2270    0.7080    2.9130 c3        1 MOL     -0.034581
     46 C16         5.5780    2.0460    2.2240 c         1 MOL      0.339205
     47 O7          6.7600    2.4330    2.2130 o         1 MOL     -0.513948
     48 O8          4.6910    2.7020    1.7130 o         1 MOL     -0.513948
     49 H21         7.0110    0.3900    1.5410 hn        1 MOL      0.200310
     50 H22         5.2590   -1.4160    2.5040 h1        1 MOL      0.070487
     51 H23         5.9730    0.4820    3.6710 hc        1 MOL      0.031526
     52 H24         4.2040    0.7590    3.3020 hc        1 MOL      0.031526
     53 N5          2.8620   -0.8950    1.6670 n         1 MOL     -0.039962
     54 C17         2.6160   -1.2520    3.1150 c3        1 MOL     -0.389261
     55 C18         2.0900   -2.6630    3.2050 c         1 MOL      0.733232
     56 O9          2.6680   -3.5940    2.6530 o         1 MOL     -0.585449
     57 H25         2.0720   -0.9800    1.0390 hn        1 MOL      0.166288
     58 H26         1.7680   -0.6370    3.4150 h1        1 MOL      0.137082
     59 H27         3.4550   -1.2090    3.8080 h1        1 MOL      0.137082
     60 N6          0.9320   -2.8700    3.8790 n         1 MOL     -0.477784
     61 C19         0.2450   -4.1430    4.1100 c3        1 MOL      0.056490
     62 C20        -0.2060   -4.7810    2.7460 c         1 MOL      0.302396
     63 O10        -1.0970   -4.2490    2.0500 o         1 MOL     -0.271429
     64 C21        -0.9940   -4.1280    5.0040 c3        1 MOL     -0.239398
     65 C22        -1.5390   -5.5130    5.3260 c         1 MOL      0.660474
     66 O11        -0.9120   -6.5530    5.0320 o         1 MOL     -0.634435
     67 O12        -2.7190   -5.5530    5.7810 o         1 MOL     -0.634435
     68 H28         0.4260   -2.0270    4.1140 hn        1 MOL      0.285563
     69 H29         1.0020   -4.7530    4.6010 h1        1 MOL      0.062342
     70 H30        -1.8400   -3.7100    4.4590 hc        1 MOL      0.076405
     71 H31        -0.8990   -3.4990    5.8840 hc        1 MOL      0.076405
     72 N7          0.5100   -5.8020    2.2850 n         1 MOL     -0.177380
     73 C23         0.3160   -6.3810    0.9160 c3        1 MOL     -0.231074
     74 C24         0.4310   -5.5380   -0.3340 c         1 MOL      0.427573
     75 O13         0.1410   -6.0720   -1.4080 o         1 MOL     -0.559286
     76 H32         1.1980   -6.2220    2.8930 hn        1 MOL      0.244054
     77 H33        -0.7220   -6.6990    1.0310 h1        1 MOL      0.137475
     78 H34         0.9880   -7.2370    0.8200 h1        1 MOL      0.137475
     79 N8          0.9620   -4.3190   -0.2930 n         1 MOL     -0.026111
     80 C25         1.1210   -3.4480   -1.4640 c3        1 MOL      0.006343
     81 C26         0.5260   -2.0880   -1.1750 c         1 MOL      0.119538
     82 O14         0.5810   -1.5300   -0.0650 o         1 MOL     -0.348360
     83 C27         2.6530   -3.2340   -1.7920 c3        1 MOL      0.482110
     84 C28         3.5210   -4.4890   -1.8950 c3        1 MOL     -0.386825
     85 O15         2.7290   -2.5360   -2.9880 oh        1 MOL     -0.627118
     86 H35         1.1800   -3.9760    0.6270 hn        1 MOL      0.062007
     87 H36         0.7020   -3.9380   -2.3370 h1        1 MOL      0.071180
     88 H37         3.0490   -2.6300   -0.9740 h1        1 MOL     -0.014104
     89 H38         3.5190   -1.9960   -2.9700 ho        1 MOL      0.363499
     90 H39         4.4680   -4.1630   -2.3350 hc        1 MOL      0.086300
     91 H40         3.6170   -4.9510   -0.9160 hc        1 MOL      0.086300
     92 H41         3.0330   -5.1090   -2.6480 hc        1 MOL      0.086300
     93 N9         -0.0140   -1.5540   -2.2120 n         1 MOL     -0.020825
     94 C29        -0.6210   -0.2160   -2.1860 c3        1 MOL     -0.217755
     95 C30        -2.0110   -0.2860   -1.4840 c         1 MOL      0.421466
     96 O16        -2.3210    0.5650   -0.6770 o         1 MOL     -0.493729
     97 C31        -0.7840    0.2910   -3.6220 c3        1 MOL      0.261034
     98 C32         0.5750    0.0220   -4.4480 c3        1 MOL      0.001650
     99 C33        -1.2850    1.7590   -3.6730 c3        1 MOL     -0.321141
    100 C34         1.8170    0.7690   -3.9980 c3        1 MOL     -0.176793
    101 H42         0.0170   -2.1300   -3.0470 hn        1 MOL      0.213154
    102 H43        -0.0130    0.5170   -1.6640 h1        1 MOL      0.152482
    103 H44        -1.5090   -0.3880   -4.0610 hc        1 MOL     -0.053781
    104 H45         0.3370    0.2350   -5.4990 hc        1 MOL     -0.005665
    105 H46         0.8110   -1.0390   -4.5240 hc        1 MOL     -0.005665
    106 H47        -0.4390    2.3540   -3.3460 hc        1 MOL      0.092520
    107 H48        -1.5200    1.9490   -4.7230 hc        1 MOL      0.092520
    108 H49        -2.1310    2.0120   -3.0370 hc        1 MOL      0.092520
    109 H50         2.0540    0.5470   -2.9510 hc        1 MOL      0.035370
    110 H51         2.6400    0.6030   -4.7000 hc        1 MOL      0.035370
    111 H52         1.6620    1.8450   -3.9590 hc        1 MOL      0.035370
    112 N10        -2.7180   -1.3800   -1.6180 n         1 MOL     -0.268655
    113 C35        -3.8820   -1.7710   -0.7810 c3        1 MOL     -0.057694
    114 C36        -5.1150   -2.1900   -1.6110 c         1 MOL      0.534846
    115 O17        -5.0870   -2.9170   -2.5740 o         1 MOL     -0.535363
    116 C37        -3.5970   -2.8850    0.1690 c3        1 MOL      0.324546
    117 C38        -3.0640   -4.1380   -0.4460 c3        1 MOL     -0.101071
    118 O18        -2.5920   -2.4130    1.0670 oh        1 MOL     -0.579405
    119 H53        -2.3260   -2.0610   -2.2480 hn        1 MOL      0.186258
    120 H54        -4.2650   -0.9050   -0.2440 h1        1 MOL      0.102919
    121 H55        -4.4820   -3.1930    0.7330 h1        1 MOL      0.010423
    122 H56        -1.9990   -3.1050    1.3620 ho        1 MOL      0.254558
    123 H57        -3.6710   -4.5750   -1.2300 hc        1 MOL      0.020813
    124 H58        -2.0600   -3.9850   -0.8480 hc        1 MOL      0.020813
    125 H59        -3.0580   -4.8240    0.4050 hc        1 MOL      0.020813
    126 N11        -6.2720   -1.7910   -1.2050 n         1 MOL     -0.519217
    127 C39        -7.5350   -2.1270   -1.8770 c3        1 MOL      0.013749
    128 C40        -8.3990   -0.8560   -2.0970 c         1 MOL      0.682113
    129 O19        -9.0280   -0.7620   -3.1520 o         1 MOL     -0.559656
    130 C41        -8.2460   -3.2720   -1.0820 c3        1 MOL      0.277206
    131 C42        -9.5850   -3.8470   -1.6600 c3        1 MOL     -0.505157
    132 O20        -8.5450   -2.8030    0.1750 oh        1 MOL     -0.642257
    133 H60        -6.2840   -1.1720   -0.3920 hn        1 MOL      0.287967
    134 H61        -7.3010   -2.4800   -2.8770 h1        1 MOL      0.100465
    135 H62        -7.5410   -4.0810   -0.8750 h1        1 MOL      0.063495
    136 H63        -8.9270   -3.5800    0.5760 ho        1 MOL      0.421317
    137 H64        -9.4060   -4.2970   -2.6370 hc        1 MOL      0.136916
    138 H65        -9.8760   -4.6040   -0.9220 hc        1 MOL      0.136916
    139 H66       -10.3220   -3.0590   -1.7460 hc        1 MOL      0.136916
    140 N12        -8.4760   -0.0050   -1.0440 n         1 MOL     -0.538957
    141 C43        -9.2740    1.2410   -1.0200 c3        1 MOL     -0.001827
    142 C44        -8.8010    2.1060    0.1830 c         1 MOL      0.339599
    143 O21        -8.3170    1.6370    1.2030 o         1 MOL     -0.443655
    144 C45       -10.7400    1.0470   -0.9560 c3        1 MOL     -0.497526
    145 C46       -11.2170    0.0890    0.1850 c3        1 MOL      0.093851
    146 C47       -12.7740    0.0060    0.3020 c3        1 MOL     -0.111840
    147 C48       -13.4240    1.0930    1.1680 c3        1 MOL      0.156382
    148 N13       -14.9080    0.8520    1.1930 n4        1 MOL     -0.177142
    149 H67        -7.9740   -0.2700   -0.2070 hn        1 MOL      0.331961
    150 H68        -9.1210    1.7840   -1.9550 h1        1 MOL      0.116577
    151 H69       -11.0490    0.4940   -1.8440 hc        1 MOL      0.173613
    152 H70       -11.3190    1.9730   -0.9710 hc        1 MOL      0.173613
    153 H71       -10.9050    0.2560    1.2190 hc        1 MOL      0.058491
    154 H72       -10.8450   -0.8980   -0.0870 hc        1 MOL      0.058491
    155 H73       -13.0320   -0.9430    0.7840 hc        1 MOL      0.034765
    156 H74       -13.2770    0.1080   -0.6590 hc        1 MOL      0.034765
    157 H75       -13.3290    2.1080    0.7940 hx        1 MOL      0.038844
    158 H76       -13.1190    0.9750    2.2000 hx        1 MOL      0.038844
    159 H77       -15.2780    1.5940    1.7840 hn        1 MOL      0.235081
    160 H78       -15.4590    0.7950    0.3410 hn        1 MOL      0.235081
    161 H79       -15.0940   -0.0430    1.6230 hn        1 MOL      0.235081
    162 N14        -8.7890    3.3910   -0.0540 n         1 MOL     -0.181238
    163 C49        -8.0150    4.3510    0.7560 c3        1 MOL     -0.059891
    164 C50        -6.5110    4.0140    0.8860 c         1 MOL      0.418101
    165 O22        -5.9140    3.8620    1.9500 o         1 MOL     -0.533575
    166 C51        -8.2830    5.8080    0.2310 c3        1 MOL      0.111761
    167 C52        -9.6670    6.3590    0.6820 c3        1 MOL     -0.342661
    168 C53       -10.2220    7.6020   -0.0760 c         1 MOL      0.681425
    169 O23       -11.0660    8.2570    0.5940 o         1 MOL     -0.664937
    170 O24        -9.7490    8.0330   -1.1450 o         1 MOL     -0.664937
    171 H80        -9.2240    3.7870   -0.8680 hn        1 MOL      0.249501
    172 H81        -8.4050    4.3050    1.7730 h1        1 MOL      0.076741
    173 H82        -8.3450    5.8000   -0.8530 hc        1 MOL      0.026363
    174 H83        -7.4560    6.4900    0.4410 hc        1 MOL      0.026363
    175 H84        -9.4920    6.7250    1.7000 hc        1 MOL      0.066331
    176 H85       -10.3720    5.5380    0.7440 hc        1 MOL      0.066331
    177 N15        -5.7870    3.7470   -0.1420 n         1 MOL     -0.251526
    178 C54        -5.9120    4.2510   -1.5010 c3        1 MOL      0.016265
    179 H86        -5.0640    3.9090   -2.0940 h1        1 MOL      0.017399
    180 H87        -6.8360    3.8800   -1.9420 h1        1 MOL      0.017399
    181 H88        -5.9270    5.3410   -1.4850 h1        1 MOL      0.017399
    182 H89        -4.9040    3.2720    0.0210 hn        1 MOL      0.266427
    183 Ca1         6.3160    4.3060    0.3670 Ca        1 MOL      1.740612
    184 O25         4.6560    2.5260   -1.1880 oh        1 MOL     -0.834360
    185 H90         4.9460    2.2450   -2.0590 ho        1 MOL      0.405560
    186 H91         4.0650    1.8300   -0.9010 ho        1 MOL      0.405560
    187 O26         6.1520    5.7140    2.7040 oh        1 MOL     -0.834360
    188 H92         5.3570    6.2430    2.7540 ho        1 MOL      0.405560
    189 H93         6.7040    6.0440    3.4120 ho        1 MOL      0.405560
    190 O27         3.9040    5.7970    0.6490 oh        1 MOL     -0.834360
    191 H94         4.3290    6.6460    0.7120 ho        1 MOL      0.405560
    192 H95         3.1310    5.8690    1.2170 ho        1 MOL      0.405560
@<TRIPOS>BOND
     1    1    2 1   
     2    1    4 1   
     3    1    5 1   
     4    1    6 1   
     5    2    3 2   
     6    2    7 1   
     7    7    8 1   
     8    7   15 1   
     9    8    9 1   
    10    8   11 1   
    11    8   16 1   
    12    9   10 2   
    13    9   19 1   
    14   11   12 1   
    15   11   17 1   
    16   11   18 1   
    17   12   13 1   
    18   12   14 1   
    19   19   20 1   
    20   19   28 1   
    21   20   21 1   
    22   20   23 1   
    23   20   29 1   
    24   21   22 2   
    25   21   41 1   
    26   23   24 1   
    27   23   30 1   
    28   23   31 1   
    29   24   25 1   
    30   24   32 1   
    31   24   33 1   
    32   25   26 1   
    33   25   34 1   
    34   25   35 1   
    35   26   27 1   
    36   26   36 1   
    37   26   37 1   
    38   27   38 1   
    39   27   39 1   
    40   27   40 1   
    41   41   42 1   
    42   41   49 1   
    43   42   43 1   
    44   42   45 1   
    45   42   50 1   
    46   43   44 2   
    47   43   53 1   
    48   45   46 1   
    49   45   51 1   
    50   45   52 1   
    51   46   47 1   
    52   46   48 1   
    53   53   54 1   
    54   53   57 1   
    55   54   55 1   
    56   54   58 1   
    57   54   59 1   
    58   55   56 2   
    59   55   60 1   
    60   60   61 1   
    61   60   68 1   
    62   61   62 1   
    63   61   64 1   
    64   61   69 1   
    65   62   63 2   
    66   62   72 1   
    67   64   65 1   
    68   64   70 1   
    69   64   71 1   
    70   65   66 1   
    71   65   67 1   
    72   72   73 1   
    73   72   76 1   
    74   73   74 1   
    75   73   77 1   
    76   73   78 1   
    77   74   75 2   
    78   74   79 1   
    79   79   80 1   
    80   79   86 1   
    81   80   81 1   
    82   80   83 1   
    83   80   87 1   
    84   81   82 2   
    85   81   93 1   
    86   83   84 1   
    87   83   85 1   
    88   83   88 1   
    89   84   90 1   
    90   84   91 1   
    91   84   92 1   
    92   85   89 1   
    93   93   94 1   
    94   93  101 1   
    95   94   95 1   
    96   94   97 1   
    97   94  102 1   
    98   95   96 2   
    99   95  112 1   
   100   97   98 1   
   101   97   99 1   
   102   97  103 1   
   103   98  100 1   
   104   98  104 1   
   105   98  105 1   
   106   99  106 1   
   107   99  107 1   
   108   99  108 1   
   109  100  109 1   
   110  100  110 1   
   111  100  111 1   
   112  112  113 1   
   113  112  119 1   
   114  113  114 1   
   115  113  116 1   
   116  113  120 1   
   117  114  115 2   
   118  114  126 1   
   119  116  117 1   
   120  116  118 1   
   121  116  121 1   
   122  117  123 1   
   123  117  124 1   
   124  117  125 1   
   125  118  122 1   
   126  126  127 1   
   127  126  133 1   
   128  127  128 1   
   129  127  130 1   
   130  127  134 1   
   131  128  129 2   
   132  128  140 1   
   133  130  131 1   
   134  130  132 1   
   135  130  135 1   
   136  131  137 1   
   137  131  138 1   
   138  131  139 1   
   139  132  136 1   
   140  140  141 1   
   141  140  149 1   
   142  141  142 1   
   143  141  144 1   
   144  141  150 1   
   145  142  143 2   
   146  142  162 1   
   147  144  145 1   
   148  144  151 1   
   149  144  152 1   
   150  145  146 1   
   151  145  153 1   
   152  145  154 1   
   153  146  147 1   
   154  146  155 1   
   155  146  156 1   
   156  147  148 1   
   157  147  157 1   
   158  147  158 1   
   159  148  159 1   
   160  148  160 1   
   161  148  161 1   
   162  162  163 1   
   163  162  171 1   
   164  163  164 1   
   165  163  166 1   
   166  163  172 1   
   167  164  165 2   
   168  164  177 1   
   169  166  167 1   
   170  166  173 1   
   171  166  174 1   
   172  167  168 1   
   173  167  175 1   
   174  167  176 1   
   175  168  169 1   
   176  168  170 1   
   177  177  178 1   
   178  177  182 1   
   179  178  179 1   
   180  178  180 1   
   181  178  181 1   
   182  184  185 1   
   183  184  186 1   
   184  187  188 1   
   185  187  189 1   
   186  190  191 1   
   187  190  192 1   
@<TRIPOS>SUBSTRUCTURE
     1 MOL         1 TEMP              0 ****  ****    0 ROOT
