@<TRIPOS>MOLECULE
MOL
  192   187     1     0     0
SMALL
resp


@<TRIPOS>ATOM
      1 C1          9.3140    1.4290    1.2570 c3        1 MOL     -0.642355
      2 C2          8.1340    0.7160    0.6910 c         1 MOL      0.840412
      3 O1          7.1040    0.4800    1.3310 o         1 MOL     -0.696857
      4 H1          9.0370    1.8970    2.2010 hc        1 MOL      0.160544
      5 H2         10.1210    0.7170    1.4280 hc        1 MOL      0.160544
      6 H3          9.6480    2.1940    0.5560 hc        1 MOL      0.160544
      7 N1          8.3180    0.4400   -0.5590 n         1 MOL     -0.618396
      8 C3          7.2540    0.0150   -1.5140 c3        1 MOL     -0.014423
      9 C4          7.0070   -1.4520   -1.4650 c         1 MOL      0.665932
     10 O2          6.9140   -2.1540   -2.4710 o         1 MOL     -0.472354
     11 C5          7.5900    0.5330   -2.9660 c3        1 MOL     -0.385572
     12 C6          9.0040    0.1860   -3.5320 c         1 MOL      0.782204
     13 O3          9.4120    0.9380   -4.4580 o         1 MOL     -0.667244
     14 O4          9.7080   -0.7170   -3.0300 o         1 MOL     -0.667244
     15 H4          9.2150    0.7260   -0.9430 hn        1 MOL      0.338296
     16 H5          6.3160    0.5010   -1.2480 h1        1 MOL      0.185651
     17 H6          7.7390    1.6040   -2.8500 hc        1 MOL      0.115446
     18 H7          6.7750    0.2950   -3.6370 hc        1 MOL      0.115446
     19 N2          6.8350   -2.0090   -0.2310 n         1 MOL     -0.707547
     20 C7          6.3360   -3.3690    0.0350 c3        1 MOL      0.258563
     21 C8          4.8240   -3.6050   -0.1590 c         1 MOL      0.524347
     22 O5          4.5020   -4.6480   -0.6750 o         1 MOL     -0.575720
     23 C9          6.6670   -3.8060    1.4430 c3        1 MOL     -0.280882
     24 C10         8.1320   -3.6440    1.7950 c3        1 MOL      0.290940
     25 C11         8.4360   -4.0530    3.2720 c3        1 MOL     -0.130262
     26 C12         9.8340   -3.6530    3.6900 c3        1 MOL      0.133087
     27 N3         10.0950   -3.9910    5.0890 n4        1 MOL     -0.225565
     28 H8          7.0940   -1.4120    0.5330 hn        1 MOL      0.349629
     29 H9          6.7730   -3.9990   -0.7360 h1        1 MOL      0.060365
     30 H10         6.4440   -4.8600    1.6250 hc        1 MOL      0.055709
     31 H11         6.1540   -3.1450    2.1390 hc        1 MOL      0.055709
     32 H12         8.4420   -2.5980    1.8250 hc        1 MOL     -0.036142
     33 H13         8.8270   -4.2150    1.1720 hc        1 MOL     -0.036142
     34 H14         8.3710   -5.1390    3.2650 hc        1 MOL      0.034718
     35 H15         7.7620   -3.5420    3.9560 hc        1 MOL      0.034718
     36 H16         9.9450   -2.5750    3.5800 hx        1 MOL      0.040870
     37 H17        10.4970   -4.1220    2.9570 hx        1 MOL      0.040870
     38 H18        11.0650   -3.8060    5.3180 hn        1 MOL      0.238569
     39 H19         9.4250   -3.5080    5.6640 hn        1 MOL      0.238569
     40 H20         9.8760   -4.9490    5.3040 hn        1 MOL      0.238569
     41 N4          3.9250   -2.7120    0.0770 n         1 MOL     -0.308254
     42 C13         4.0490   -1.4560    0.8870 c3        1 MOL     -0.033356
     43 C14         3.8770   -0.1760    0.0430 c         1 MOL     -0.177870
     44 O6          3.7230   -0.2250   -1.1930 o         1 MOL     -0.315817
     45 C15         2.8430   -1.4510    1.8930 c3        1 MOL     -0.303093
     46 C16         1.4950   -1.7690    1.2640 c         1 MOL      0.848685
     47 O7          0.9770   -0.9970    0.4290 o         1 MOL     -0.712533
     48 O8          0.8720   -2.7570    1.6240 o         1 MOL     -0.712533
     49 H21         3.0560   -2.8590   -0.4010 hn        1 MOL      0.327888
     50 H22         4.9930   -1.3420    1.4230 h1        1 MOL      0.204525
     51 H23         2.6940   -0.4830    2.3910 hc        1 MOL      0.042976
     52 H24         2.9960   -2.2760    2.5830 hc        1 MOL      0.042976
     53 N5          4.0210    0.9660    0.6580 n         1 MOL      0.001028
     54 C17         4.0540    2.2820    0.0360 c3        1 MOL     -0.199311
     55 C18         2.7760    2.6220   -0.7460 c         1 MOL      0.526530
     56 O9          1.7410    2.0410   -0.5390 o         1 MOL     -0.382184
     57 H25         4.3490    0.8790    1.6070 hn        1 MOL      0.248321
     58 H26         4.9320    2.3310   -0.6140 h1        1 MOL      0.089611
     59 H27         4.2380    2.9100    0.8990 h1        1 MOL      0.089611
     60 N6          2.8700    3.6040   -1.5670 n         1 MOL     -0.298731
     61 C19         1.8220    4.2830   -2.3350 c3        1 MOL     -0.008675
     62 C20         2.1360    5.7850   -2.5930 c         1 MOL      0.540729
     63 O10         3.2290    6.1630   -2.8860 o         1 MOL     -0.521984
     64 C21         1.7430    3.6660   -3.7300 c3        1 MOL     -0.125796
     65 C22         1.1640    2.2210   -3.7920 c         1 MOL      0.587867
     66 O11         0.1660    1.9490   -3.1100 o         1 MOL     -0.652813
     67 O12         1.9200    1.3970   -4.3230 o         1 MOL     -0.652813
     68 H28         3.7240    4.1320   -1.4450 hn        1 MOL      0.239378
     69 H29         0.8920    4.2130   -1.7690 h1        1 MOL     -0.016366
     70 H30         2.6900    3.6900   -4.2770 hc        1 MOL      0.066605
     71 H31         1.0820    4.2070   -4.4050 hc        1 MOL      0.066605
     72 N7          1.1740    6.7360   -2.5900 n         1 MOL     -0.486051
     73 C23        -0.2700    6.4690   -2.5750 c3        1 MOL     -0.041629
     74 C24        -0.8030    5.9960   -1.1900 c         1 MOL      0.593424
     75 O13        -0.1110    5.9980   -0.2140 o         1 MOL     -0.487039
     76 H32         1.4330    7.7080   -2.6920 hn        1 MOL      0.325710
     77 H33        -0.4790    5.7270   -3.3490 h1        1 MOL      0.071192
     78 H34        -0.7870    7.3880   -2.8240 h1        1 MOL      0.071192
     79 N8         -2.0380    5.4360   -1.1450 n         1 MOL     -0.533141
     80 C25        -2.6280    4.8840    0.0980 c3        1 MOL     -0.055172
     81 C26        -1.8460    3.7370    0.7940 c         1 MOL      0.885034
     82 O14        -1.3290    2.8760    0.1000 o         1 MOL     -0.704848
     83 C27        -4.0570    4.3480   -0.2340 c3        1 MOL      0.254016
     84 C28        -4.6850    3.4850    0.8820 c3        1 MOL     -0.049568
     85 O15        -4.0450    3.4570   -1.3460 oh        1 MOL     -0.547704
     86 H35        -2.6230    5.2920   -1.9580 hn        1 MOL      0.283007
     87 H36        -2.7090    5.6950    0.8190 h1        1 MOL      0.052351
     88 H37        -4.7020    5.2040   -0.4040 h1        1 MOL      0.037283
     89 H38        -3.1740    3.0990   -1.5210 ho        1 MOL      0.347464
     90 H39        -4.0870    2.5910    1.0570 hc        1 MOL     -0.015959
     91 H40        -4.7800    4.1580    1.7350 hc        1 MOL     -0.015959
     92 H41        -5.6630    3.0660    0.6530 hc        1 MOL     -0.015959
     93 N9         -1.7390    3.6910    2.1250 n         1 MOL     -0.642905
     94 C29        -0.9490    2.7420    2.9400 c3        1 MOL      0.044022
     95 C30        -1.5000    1.1980    2.7340 c         1 MOL      0.782190
     96 O16        -1.1890    0.4350    1.8090 o         1 MOL     -0.608087
     97 C31         0.5920    2.8380    2.6320 c3        1 MOL      0.553463
     98 C32         1.0850    4.2840    2.6670 c3        1 MOL     -0.093764
     99 C33         1.4140    1.9890    3.6870 c3        1 MOL     -0.576984
    100 C34         1.1040    4.9210    4.0290 c3        1 MOL     -0.392607
    101 H42        -2.4010    4.2370    2.6550 hn        1 MOL      0.296628
    102 H43        -1.0570    2.9160    4.0140 h1        1 MOL      0.009248
    103 H44         0.7430    2.4500    1.6230 hc        1 MOL     -0.268294
    104 H45         0.5510    4.9430    1.9800 hc        1 MOL      0.061505
    105 H46         2.1270    4.1880    2.3810 hc        1 MOL      0.061505
    106 H47         1.0630    2.1770    4.7060 hc        1 MOL      0.141411
    107 H48         1.1950    0.9870    3.3210 hc        1 MOL      0.141411
    108 H49         2.4120    2.3840    3.4950 hc        1 MOL      0.141411
    109 H50         0.1070    5.1440    4.3980 hc        1 MOL      0.094659
    110 H51         1.6430    4.3270    4.7640 hc        1 MOL      0.094659
    111 H52         1.7450    5.8070    3.9540 hc        1 MOL      0.094659
    112 N10        -2.2690    0.7990    3.8100 n         1 MOL     -0.784874
    113 C35        -2.6820   -0.6430    4.0030 c3        1 MOL      0.019033
    114 C36        -4.0400   -0.9730    3.4340 c         1 MOL      0.368888
    115 O17        -4.2860   -2.1930    3.3270 o         1 MOL     -0.523064
    116 C37        -2.5950   -1.1200    5.4470 c3        1 MOL      0.390381
    117 C38        -3.7070   -0.6080    6.3560 c3        1 MOL     -0.203138
    118 O18        -1.4260   -0.6580    6.0780 oh        1 MOL     -0.618829
    119 H53        -2.4700    1.4800    4.5280 hn        1 MOL      0.370881
    120 H54        -1.9600   -1.2600    3.4590 h1        1 MOL      0.138482
    121 H55        -2.6690   -2.1980    5.4050 h1        1 MOL      0.006680
    122 H56        -0.6610   -0.9890    5.6040 ho        1 MOL      0.394060
    123 H57        -3.7800    0.4750    6.4380 hc        1 MOL      0.056987
    124 H58        -4.6980   -0.9630    6.0590 hc        1 MOL      0.056987
    125 H59        -3.5960   -1.0920    7.3300 hc        1 MOL      0.056987
    126 N11        -4.9510   -0.0110    3.1500 n         1 MOL     -0.038620
    127 C39        -6.2250   -0.3650    2.5100 c3        1 MOL     -0.364744
    128 C40        -6.1070   -0.6620    1.0210 c         1 MOL      0.648421
    129 O19        -5.5510    0.0750    0.2240 o         1 MOL     -0.418483
    130 C41        -7.3570    0.6110    2.9060 c3        1 MOL      0.508850
    131 C42        -7.5760    0.4430    4.4200 c3        1 MOL     -0.270087
    132 O20        -7.0250    1.9110    2.6330 oh        1 MOL     -0.626826
    133 H60        -4.6750    0.9570    3.2680 hn        1 MOL      0.204709
    134 H61        -6.5860   -1.2960    2.9430 h1        1 MOL      0.128870
    135 H62        -8.2810    0.2990    2.4060 h1        1 MOL     -0.049411
    136 H63        -7.7380    2.5550    2.7290 ho        1 MOL      0.411873
    137 H64        -8.4890    1.0170    4.5640 hc        1 MOL      0.053801
    138 H65        -7.6740   -0.6100    4.6840 hc        1 MOL      0.053801
    139 H66        -6.6790    0.9190    4.8220 hc        1 MOL      0.053801
    140 N12        -6.6970   -1.8200    0.5460 n         1 MOL     -0.572877
    141 C43        -6.7000   -2.2770   -0.8400 c3        1 MOL      0.166408
    142 C44        -5.2580   -2.2680   -1.4330 c         1 MOL      0.518712
    143 O21        -4.8230   -1.3540   -2.1800 o         1 MOL     -0.512386
    144 C45        -7.6710   -1.5160   -1.6810 c3        1 MOL     -0.421465
    145 C46        -9.1750   -1.4280   -1.2320 c3        1 MOL     -0.018188
    146 C47       -10.0520   -0.9780   -2.4420 c3        1 MOL      0.155749
    147 C48       -11.4170   -1.0150   -1.8960 c3        1 MOL      0.025914
    148 N13       -12.4810   -0.6380   -2.9380 n4        1 MOL     -0.134101
    149 H67        -7.3640   -2.2310    1.1850 hn        1 MOL      0.279964
    150 H68        -6.9570   -3.3350   -0.8070 h1        1 MOL      0.060677
    151 H69        -7.5920   -1.9010   -2.6990 hc        1 MOL      0.135991
    152 H70        -7.3270   -0.4830   -1.6860 hc        1 MOL      0.135991
    153 H71        -9.1630   -0.7610   -0.3640 hc        1 MOL      0.055604
    154 H72        -9.3960   -2.4610   -0.9700 hc        1 MOL      0.055604
    155 H73        -9.9130   -1.5730   -3.3430 hc        1 MOL      0.002229
    156 H74        -9.9450    0.0900   -2.6720 hc        1 MOL      0.002229
    157 H75       -11.4950   -0.2250   -1.1390 hx        1 MOL      0.028733
    158 H76       -11.6130   -2.0260   -1.5330 hx        1 MOL      0.028733
    159 H77       -12.5660   -1.3710   -3.6240 hn        1 MOL      0.190264
    160 H78       -13.3260   -0.4690   -2.4150 hn        1 MOL      0.190264
    161 H79       -12.3450    0.2530   -3.3940 hn        1 MOL      0.190264
    162 N14        -4.5960   -3.3720   -1.1990 n         1 MOL     -0.557718
    163 C49        -3.2920   -3.6650   -1.7830 c3        1 MOL      0.411117
    164 C50        -2.1290   -3.0520   -0.9200 c         1 MOL      0.364188
    165 O22        -1.6800   -1.9650   -1.2400 o         1 MOL     -0.651383
    166 C51        -3.1050   -5.1310   -2.2130 c3        1 MOL     -0.126630
    167 C52        -3.7220   -5.3570   -3.5870 c3        1 MOL     -0.268381
    168 C53        -3.4800   -6.7750   -3.9760 c         1 MOL      0.780700
    169 O23        -2.4790   -7.0540   -4.6760 o         1 MOL     -0.645050
    170 O24        -4.2970   -7.6590   -3.7030 o         1 MOL     -0.645050
    171 H80        -5.0650   -4.1900   -0.8230 hn        1 MOL      0.301674
    172 H81        -3.1780   -3.1080   -2.7130 h1        1 MOL      0.045197
    173 H82        -3.5460   -5.8220   -1.5040 hc        1 MOL      0.048961
    174 H83        -2.0750   -5.4820   -2.1390 hc        1 MOL      0.048961
    175 H84        -3.2860   -4.7680   -4.3980 hc        1 MOL      0.046814
    176 H85        -4.7980   -5.1520   -3.5960 hc        1 MOL      0.046814
    177 N15        -1.6810   -3.4920    0.2130 n         1 MOL     -0.178401
    178 C54        -1.9350   -4.7930    0.8360 c3        1 MOL     -0.102535
    179 H86        -1.4170   -5.5710    0.2760 h1        1 MOL      0.058519
    180 H87        -1.5710   -4.7820    1.8630 h1        1 MOL      0.058519
    181 H88        -3.0060   -4.9950    0.8320 h1        1 MOL      0.058519
    182 H89        -1.0490   -2.8330    0.6640 hn        1 MOL      0.261331
    183 Ca1        -0.5030    0.6080   -0.9220 Ca        1 MOL      1.756409
    184 O25        -1.7460   -0.3690   -3.5400 oh        1 MOL     -0.802963
    185 H90        -1.7180   -1.2870   -3.8000 ho        1 MOL      0.390009
    186 H91        -1.5590    0.1160   -4.3460 ho        1 MOL      0.390009
    187 O26        -3.1280    0.5750   -1.0070 oh        1 MOL     -0.802963
    188 H92        -3.7870    0.4350   -0.3300 ho        1 MOL      0.390009
    189 H93        -3.2760   -0.1370   -1.6350 ho        1 MOL      0.390009
    190 O27         1.2640   -0.6160   -2.3940 oh        1 MOL     -0.802963
    191 H94         2.1850   -0.5570   -2.1550 ho        1 MOL      0.390009
    192 H95         1.2320   -0.3500   -3.3160 ho        1 MOL      0.390009
@<TRIPOS>BOND
     1    1    2 1   
     2    1    4 1   
     3    1    5 1   
     4    1    6 1   
     5    2    3 2   
     6    2    7 1   
     7    7    8 1   
     8    7   15 1   
     9    8    9 1   
    10    8   11 1   
    11    8   16 1   
    12    9   10 2   
    13    9   19 1   
    14   11   12 1   
    15   11   17 1   
    16   11   18 1   
    17   12   13 1   
    18   12   14 1   
    19   19   20 1   
    20   19   28 1   
    21   20   21 1   
    22   20   23 1   
    23   20   29 1   
    24   21   22 2   
    25   21   41 1   
    26   23   24 1   
    27   23   30 1   
    28   23   31 1   
    29   24   25 1   
    30   24   32 1   
    31   24   33 1   
    32   25   26 1   
    33   25   34 1   
    34   25   35 1   
    35   26   27 1   
    36   26   36 1   
    37   26   37 1   
    38   27   38 1   
    39   27   39 1   
    40   27   40 1   
    41   41   42 1   
    42   41   49 1   
    43   42   43 1   
    44   42   45 1   
    45   42   50 1   
    46   43   44 2   
    47   43   53 1   
    48   45   46 1   
    49   45   51 1   
    50   45   52 1   
    51   46   47 1   
    52   46   48 1   
    53   53   54 1   
    54   53   57 1   
    55   54   55 1   
    56   54   58 1   
    57   54   59 1   
    58   55   56 2   
    59   55   60 1   
    60   60   61 1   
    61   60   68 1   
    62   61   62 1   
    63   61   64 1   
    64   61   69 1   
    65   62   63 2   
    66   62   72 1   
    67   64   65 1   
    68   64   70 1   
    69   64   71 1   
    70   65   66 1   
    71   65   67 1   
    72   72   73 1   
    73   72   76 1   
    74   73   74 1   
    75   73   77 1   
    76   73   78 1   
    77   74   75 2   
    78   74   79 1   
    79   79   80 1   
    80   79   86 1   
    81   80   81 1   
    82   80   83 1   
    83   80   87 1   
    84   81   82 2   
    85   81   93 1   
    86   83   84 1   
    87   83   85 1   
    88   83   88 1   
    89   84   90 1   
    90   84   91 1   
    91   84   92 1   
    92   85   89 1   
    93   93   94 1   
    94   93  101 1   
    95   94   95 1   
    96   94   97 1   
    97   94  102 1   
    98   95   96 2   
    99   95  112 1   
   100   97   98 1   
   101   97   99 1   
   102   97  103 1   
   103   98  100 1   
   104   98  104 1   
   105   98  105 1   
   106   99  106 1   
   107   99  107 1   
   108   99  108 1   
   109  100  109 1   
   110  100  110 1   
   111  100  111 1   
   112  112  113 1   
   113  112  119 1   
   114  113  114 1   
   115  113  116 1   
   116  113  120 1   
   117  114  115 2   
   118  114  126 1   
   119  116  117 1   
   120  116  118 1   
   121  116  121 1   
   122  117  123 1   
   123  117  124 1   
   124  117  125 1   
   125  118  122 1   
   126  126  127 1   
   127  126  133 1   
   128  127  128 1   
   129  127  130 1   
   130  127  134 1   
   131  128  129 2   
   132  128  140 1   
   133  130  131 1   
   134  130  132 1   
   135  130  135 1   
   136  131  137 1   
   137  131  138 1   
   138  131  139 1   
   139  132  136 1   
   140  140  141 1   
   141  140  149 1   
   142  141  142 1   
   143  141  144 1   
   144  141  150 1   
   145  142  143 2   
   146  142  162 1   
   147  144  145 1   
   148  144  151 1   
   149  144  152 1   
   150  145  146 1   
   151  145  153 1   
   152  145  154 1   
   153  146  147 1   
   154  146  155 1   
   155  146  156 1   
   156  147  148 1   
   157  147  157 1   
   158  147  158 1   
   159  148  159 1   
   160  148  160 1   
   161  148  161 1   
   162  162  163 1   
   163  162  171 1   
   164  163  164 1   
   165  163  166 1   
   166  163  172 1   
   167  164  165 2   
   168  164  177 1   
   169  166  167 1   
   170  166  173 1   
   171  166  174 1   
   172  167  168 1   
   173  167  175 1   
   174  167  176 1   
   175  168  169 1   
   176  168  170 1   
   177  177  178 1   
   178  177  182 1   
   179  178  179 1   
   180  178  180 1   
   181  178  181 1   
   182  184  185 1   
   183  184  186 1   
   184  187  188 1   
   185  187  189 1   
   186  190  191 1   
   187  190  192 1   
@<TRIPOS>SUBSTRUCTURE
     1 MOL         1 TEMP              0 ****  ****    0 ROOT
