@<TRIPOS>MOLECULE
MOL
  192   187     1     0     0
SMALL
resp


@<TRIPOS>ATOM
      1 C1         -5.8310   -4.6170    4.1850 c3        1 MOL     -0.348385
      2 C2         -5.4170   -3.6900    3.0840 c         1 MOL      0.873195
      3 O1         -5.0670   -4.1670    2.0340 o         1 MOL     -0.647232
      4 H1         -6.4450   -4.0750    4.9040 hc        1 MOL      0.076721
      5 H2         -6.4060   -5.4450    3.7670 hc        1 MOL      0.076721
      6 H3         -4.9440   -5.0060    4.6860 hc        1 MOL      0.076721
      7 N1         -5.5490   -2.4290    3.2200 n         1 MOL     -0.565637
      8 C3         -5.2390   -1.4050    2.1740 c3        1 MOL      0.232212
      9 C4         -3.7250   -1.1970    1.7330 c         1 MOL      0.312957
     10 O2         -3.4330   -0.3740    0.8860 o         1 MOL     -0.357372
     11 C5         -5.9090   -0.0470    2.4660 c3        1 MOL     -0.221042
     12 C6         -7.3280   -0.1250    2.9470 c         1 MOL      0.779384
     13 O3         -7.6020   -0.4250    4.1320 o         1 MOL     -0.714427
     14 O4         -8.1690    0.3680    2.1880 o         1 MOL     -0.714427
     15 H4         -6.0360   -2.0460    4.0240 hn        1 MOL      0.240443
     16 H5         -5.7430   -1.7850    1.2790 h1        1 MOL      0.057973
     17 H6         -5.8660    0.5560    1.5600 hc        1 MOL      0.018211
     18 H7         -5.2540    0.4360    3.1890 hc        1 MOL      0.018211
     19 N2         -2.6910   -1.8660    2.3290 n         1 MOL     -0.335951
     20 C7         -1.3140   -1.5550    2.3580 c3        1 MOL      0.047015
     21 C8         -0.5080   -2.6200    1.6680 c         1 MOL      0.777800
     22 O5         -0.7360   -3.8180    1.8830 o         1 MOL     -0.565125
     23 C9         -0.8570   -1.4450    3.8070 c3        1 MOL     -0.029361
     24 C10        -1.1050   -0.0680    4.4840 c3        1 MOL      0.078856
     25 C11        -0.1150    0.2450    5.5070 c3        1 MOL      0.006484
     26 C12         0.0110    1.7420    5.7680 c3        1 MOL     -0.046817
     27 N3          0.8390    1.9340    6.9840 n4        1 MOL     -0.138622
     28 H8         -3.0020   -2.7330    2.7340 hn        1 MOL      0.194716
     29 H9         -1.0570   -0.6180    1.8680 h1        1 MOL      0.047424
     30 H10         0.2130   -1.5990    3.7230 hc        1 MOL      0.007974
     31 H11        -1.3120   -2.2510    4.3900 hc        1 MOL      0.007974
     32 H12        -2.0670   -0.0650    5.0010 hc        1 MOL     -0.013014
     33 H13        -1.0310    0.6610    3.6760 hc        1 MOL     -0.013014
     34 H14         0.8740   -0.1550    5.3160 hc        1 MOL      0.010836
     35 H15        -0.2730   -0.3080    6.4350 hc        1 MOL      0.010836
     36 H16        -0.9880    2.1680    5.8410 hx        1 MOL      0.085928
     37 H17         0.4490    2.1060    4.8430 hx        1 MOL      0.085928
     38 H18         1.6760    1.3780    7.0240 hn        1 MOL      0.260097
     39 H19         1.0450    2.9070    7.2040 hn        1 MOL      0.260097
     40 H20         0.4320    1.5890    7.8430 hn        1 MOL      0.260097
     41 N4          0.5860   -2.3410    0.9180 n         1 MOL     -0.728935
     42 C13         1.3180   -1.0580    0.6040 c3        1 MOL      0.304299
     43 C14         1.6190   -0.1580    1.8510 c         1 MOL      0.192269
     44 O6          0.9560    0.8180    2.1370 o         1 MOL     -0.467291
     45 C15         0.8090   -0.3240   -0.6010 c3        1 MOL      0.004205
     46 C16         0.4890   -1.2590   -1.7210 c         1 MOL      0.653251
     47 O7          1.3430   -2.1110   -2.0590 o         1 MOL     -0.786702
     48 O8         -0.5790   -1.1180   -2.3870 o         1 MOL     -0.786702
     49 H21         1.0650   -3.1670    0.5830 hn        1 MOL      0.310729
     50 H22         2.3400   -1.2570    0.2910 h1        1 MOL     -0.024217
     51 H23         1.5570    0.4120   -0.8860 hc        1 MOL      0.049301
     52 H24        -0.1840    0.1020   -0.4280 hc        1 MOL      0.049301
     53 N5          2.6020   -0.6150    2.6750 n         1 MOL     -0.130126
     54 C17         3.5450   -1.6510    2.3950 c3        1 MOL     -0.059713
     55 C18         4.4950   -2.0220    3.5580 c         1 MOL      0.457446
     56 O9          4.3400   -1.5220    4.6720 o         1 MOL     -0.557980
     57 H25         2.7870   -0.0450    3.4930 hn        1 MOL      0.225399
     58 H26         4.1990   -1.2020    1.6470 h1        1 MOL      0.074475
     59 H27         2.9710   -2.5620    2.2180 h1        1 MOL      0.074475
     60 N6          5.6420   -2.6450    3.3110 n         1 MOL     -0.354661
     61 C19         6.1780   -3.3280    2.0660 c3        1 MOL      0.161278
     62 C20         6.8670   -2.3940    1.0730 c         1 MOL      0.530149
     63 O10         7.0440   -1.1870    1.3410 o         1 MOL     -0.482555
     64 C21         7.1250   -4.4150    2.4700 c3        1 MOL     -0.171828
     65 C22         8.2760   -4.0890    3.4800 c         1 MOL      0.681198
     66 O11         9.2230   -4.8190    3.6260 o         1 MOL     -0.653285
     67 O12         8.4010   -2.9150    3.9010 o         1 MOL     -0.653285
     68 H28         6.2300   -2.7560    4.1320 hn        1 MOL      0.248435
     69 H29         5.3270   -3.6170    1.4450 h1        1 MOL     -0.065145
     70 H30         7.5580   -4.9190    1.6060 hc        1 MOL      0.005023
     71 H31         6.4790   -5.1490    2.9650 hc        1 MOL      0.005023
     72 N7          7.1350   -2.8840   -0.1260 n         1 MOL     -0.313506
     73 C23         7.8730   -2.1610   -1.1880 c3        1 MOL     -0.082553
     74 C24         7.3170   -0.8070   -1.6090 c         1 MOL      0.598455
     75 O13         7.9690    0.2450   -1.6980 o         1 MOL     -0.551829
     76 H32         6.8210   -3.8370   -0.2780 hn        1 MOL      0.232886
     77 H33         8.0770   -2.7700   -2.0700 h1        1 MOL      0.086613
     78 H34         8.8710   -1.9680   -0.8080 h1        1 MOL      0.086613
     79 N8          6.0150   -0.8840   -1.8920 n         1 MOL     -0.559218
     80 C25         5.2830    0.2960   -2.4190 c3        1 MOL      0.065457
     81 C26         4.8660    1.1520   -1.2540 c         1 MOL      0.563757
     82 O14         4.4080    0.7320   -0.2260 o         1 MOL     -0.485087
     83 C27         4.0160   -0.1160   -3.1230 c3        1 MOL      0.494751
     84 C28         4.3210   -0.9060   -4.4230 c3        1 MOL     -0.484200
     85 O15         3.2460    0.9820   -3.4980 oh        1 MOL     -0.697204
     86 H35         5.5630   -1.7850   -1.8460 hn        1 MOL      0.242737
     87 H36         5.9130    0.7440   -3.1860 h1        1 MOL      0.081253
     88 H37         3.3080   -0.6500   -2.4930 h1        1 MOL     -0.056000
     89 H38         2.4310    0.6130   -3.8610 ho        1 MOL      0.457552
     90 H39         5.1950   -0.4280   -4.8730 hc        1 MOL      0.103660
     91 H40         4.4940   -1.9670   -4.2370 hc        1 MOL      0.103660
     92 H41         3.5410   -0.7860   -5.1800 hc        1 MOL      0.103660
     93 N9          4.9620    2.4580   -1.4160 n         1 MOL     -0.347153
     94 C29         5.0310    3.4800   -0.3230 c3        1 MOL     -0.025741
     95 C30         3.7350    4.2420   -0.0240 c         1 MOL      0.310939
     96 O16         3.7940    5.2220    0.7630 o         1 MOL     -0.512355
     97 C31         6.3050    4.4050   -0.4030 c3        1 MOL      0.066753
     98 C32         6.4030    5.4610   -1.5030 c3        1 MOL      0.013570
     99 C33         7.5270    3.5040   -0.3510 c3        1 MOL      0.076087
    100 C34         7.6210    6.2980   -1.4070 c3        1 MOL     -0.167865
    101 H42         5.3830    2.8000   -2.2690 hn        1 MOL      0.219439
    102 H43         5.1500    2.8450    0.5500 h1        1 MOL      0.141110
    103 H44         6.3190    4.8900    0.5700 hc        1 MOL      0.024423
    104 H45         5.6600    6.2180   -1.2570 hc        1 MOL      0.016562
    105 H46         6.1200    4.9760   -2.4410 hc        1 MOL      0.016562
    106 H47         7.4420    2.9890    0.6080 hc        1 MOL     -0.018968
    107 H48         7.6530    2.7740   -1.1520 hc        1 MOL     -0.018968
    108 H49         8.4380    4.0910   -0.3970 hc        1 MOL     -0.018968
    109 H50         7.7750    6.8560   -0.4790 hc        1 MOL      0.045734
    110 H51         8.4840    5.7840   -1.8400 hc        1 MOL      0.045734
    111 H52         7.3600    7.0980   -2.0970 hc        1 MOL      0.045734
    112 N10         2.5850    3.8560   -0.6390 n         1 MOL     -0.164880
    113 C35         1.3470    4.6360   -0.6910 c3        1 MOL     -0.072375
    114 C36         0.1290    3.6420   -0.6480 c         1 MOL      0.501684
    115 O17         0.0290    2.6460   -1.3380 o         1 MOL     -0.474489
    116 C37         1.3340    5.5380   -1.9540 c3        1 MOL      0.422713
    117 C38         1.5350    4.8110   -3.3110 c3        1 MOL     -0.110601
    118 O18         2.4380    6.4030   -2.0040 oh        1 MOL     -0.613063
    119 H53         2.7790    3.0460   -1.2220 hn        1 MOL      0.132846
    120 H54         1.2710    5.1610    0.2570 h1        1 MOL      0.115360
    121 H55         0.3320    5.9540   -1.9970 h1        1 MOL     -0.030324
    122 H56         2.9080    6.2230   -2.8230 ho        1 MOL      0.355220
    123 H57         1.5650    5.5350   -4.1280 hc        1 MOL      0.017885
    124 H58         2.3430    4.0850   -3.3390 hc        1 MOL      0.017885
    125 H59         0.7470    4.1160   -3.6260 hc        1 MOL      0.017885
    126 N11        -0.8970    4.0140    0.1260 n         1 MOL     -0.489083
    127 C39        -2.0980    3.1620    0.5220 c3        1 MOL     -0.014324
    128 C40        -3.0680    3.0520   -0.6650 c         1 MOL      0.521661
    129 O19        -3.2130    4.0080   -1.4360 o         1 MOL     -0.534185
    130 C41        -2.7760    3.7690    1.7400 c3        1 MOL      0.339304
    131 C42        -3.3810    5.1380    1.5650 c3        1 MOL     -0.232917
    132 O20        -1.8480    3.9220    2.8010 oh        1 MOL     -0.622456
    133 H60        -0.8470    4.8510    0.6720 hn        1 MOL      0.286430
    134 H61        -1.6620    2.1830    0.7260 h1        1 MOL      0.126199
    135 H62        -3.5020    3.0680    2.1420 h1        1 MOL     -0.004163
    136 H63        -2.3250    3.7270    3.6160 ho        1 MOL      0.397652
    137 H64        -2.8060    5.7670    0.8860 hc        1 MOL      0.054537
    138 H65        -4.3470    5.1060    1.0640 hc        1 MOL      0.054537
    139 H66        -3.3690    5.5860    2.5620 hc        1 MOL      0.054537
    140 N12        -3.9290    2.0040   -0.7710 n         1 MOL     -0.213473
    141 C43        -5.0320    1.8850   -1.8040 c3        1 MOL     -0.123808
    142 C44        -5.0980    0.4990   -2.5120 c         1 MOL      0.609299
    143 O21        -5.6430    0.3020   -3.5860 o         1 MOL     -0.592795
    144 C45        -6.4080    2.1890   -1.2290 c3        1 MOL     -0.025549
    145 C46        -6.4420    3.5430   -0.5760 c3        1 MOL      0.151811
    146 C47        -7.8570    3.8520   -0.2110 c3        1 MOL     -0.146216
    147 C48        -7.8930    4.8420    0.9350 c3        1 MOL      0.092226
    148 N13        -9.3160    5.2390    1.2040 n4        1 MOL     -0.418520
    149 H67        -3.7970    1.2030   -0.1650 hn        1 MOL      0.008735
    150 H68        -4.7390    2.5890   -2.5720 h1        1 MOL      0.097410
    151 H69        -6.6950    1.4730   -0.4630 hc        1 MOL      0.031321
    152 H70        -7.1250    2.0720   -2.0470 hc        1 MOL      0.031321
    153 H71        -6.0530    4.2900   -1.2730 hc        1 MOL     -0.011198
    154 H72        -5.8050    3.5410    0.3100 hc        1 MOL     -0.011198
    155 H73        -8.2790    2.9660    0.2490 hc        1 MOL      0.066804
    156 H74        -8.4830    4.2320   -1.0210 hc        1 MOL      0.066804
    157 H75        -7.3780    5.7750    0.7270 hx        1 MOL      0.063459
    158 H76        -7.6180    4.3260    1.8600 hx        1 MOL      0.063459
    159 H77        -9.3250    6.0990    1.7320 hn        1 MOL      0.337949
    160 H78        -9.8160    5.3260    0.3250 hn        1 MOL      0.337949
    161 H79        -9.7880    4.5490    1.7680 hn        1 MOL      0.337949
    162 N14        -4.5710   -0.5280   -1.8220 n         1 MOL     -0.319763
    163 C49        -4.6960   -1.9480   -2.3040 c3        1 MOL     -0.196069
    164 C50        -6.1860   -2.4960   -2.1620 c         1 MOL      0.651251
    165 O22        -6.7530   -2.5080   -1.0740 o         1 MOL     -0.534715
    166 C51        -3.7660   -2.8780   -1.4330 c3        1 MOL      0.173184
    167 C52        -3.6630   -4.3150   -1.8540 c3        1 MOL     -0.473772
    168 C53        -3.2480   -4.5410   -3.3550 c         1 MOL      0.761907
    169 O23        -4.1670   -4.8950   -4.1480 o         1 MOL     -0.761125
    170 O24        -2.0710   -4.4000   -3.7600 o         1 MOL     -0.761125
    171 H80        -4.0580   -0.3860   -0.9660 hn        1 MOL      0.264938
    172 H81        -4.4470   -1.9750   -3.3690 h1        1 MOL      0.050369
    173 H82        -4.1430   -2.8510   -0.4160 hc        1 MOL     -0.017517
    174 H83        -2.7580   -2.4800   -1.3290 hc        1 MOL     -0.017517
    175 H84        -4.6470   -4.7720   -1.7170 hc        1 MOL      0.149136
    176 H85        -2.8760   -4.7710   -1.2550 hc        1 MOL      0.149136
    177 N15        -6.5970   -3.1640   -3.2350 n         1 MOL     -0.387280
    178 C54        -7.9750   -3.7590   -3.3000 c3        1 MOL     -0.179134
    179 H86        -7.9440   -4.6850   -3.8750 h1        1 MOL      0.092788
    180 H87        -8.3280   -3.9700   -2.2910 h1        1 MOL      0.092788
    181 H88        -8.6520   -3.0550   -3.7830 h1        1 MOL      0.092788
    182 H89        -6.0530   -3.3770   -4.0610 hn        1 MOL      0.381205
    183 Ca1         0.1930   -3.3630   -3.9720 Ca        1 MOL      1.735177
    184 O25         2.8790   -4.4220   -3.9050 oh        1 MOL     -0.866564
    185 H90         3.0600   -4.6750   -3.0050 ho        1 MOL      0.440588
    186 H91         3.7360   -4.3390   -4.3100 ho        1 MOL      0.440588
    187 O26        -1.5440   -1.5620   -4.6880 oh        1 MOL     -0.866564
    188 H92        -1.6280   -1.1630   -3.8210 ho        1 MOL      0.440588
    189 H93        -2.2430   -1.1570   -5.2050 ho        1 MOL      0.440588
    190 O27         1.3540   -2.0640   -5.8800 oh        1 MOL     -0.866564
    191 H94         1.9520   -2.4840   -6.4950 ho        1 MOL      0.440588
    192 H95         1.2710   -1.1670   -6.1920 ho        1 MOL      0.440588
@<TRIPOS>BOND
     1    1    2 1   
     2    1    4 1   
     3    1    5 1   
     4    1    6 1   
     5    2    3 2   
     6    2    7 1   
     7    7    8 1   
     8    7   15 1   
     9    8    9 1   
    10    8   11 1   
    11    8   16 1   
    12    9   10 2   
    13    9   19 1   
    14   11   12 1   
    15   11   17 1   
    16   11   18 1   
    17   12   13 1   
    18   12   14 1   
    19   19   20 1   
    20   19   28 1   
    21   20   21 1   
    22   20   23 1   
    23   20   29 1   
    24   21   22 2   
    25   21   41 1   
    26   23   24 1   
    27   23   30 1   
    28   23   31 1   
    29   24   25 1   
    30   24   32 1   
    31   24   33 1   
    32   25   26 1   
    33   25   34 1   
    34   25   35 1   
    35   26   27 1   
    36   26   36 1   
    37   26   37 1   
    38   27   38 1   
    39   27   39 1   
    40   27   40 1   
    41   41   42 1   
    42   41   49 1   
    43   42   43 1   
    44   42   45 1   
    45   42   50 1   
    46   43   44 2   
    47   43   53 1   
    48   45   46 1   
    49   45   51 1   
    50   45   52 1   
    51   46   47 1   
    52   46   48 1   
    53   53   54 1   
    54   53   57 1   
    55   54   55 1   
    56   54   58 1   
    57   54   59 1   
    58   55   56 2   
    59   55   60 1   
    60   60   61 1   
    61   60   68 1   
    62   61   62 1   
    63   61   64 1   
    64   61   69 1   
    65   62   63 2   
    66   62   72 1   
    67   64   65 1   
    68   64   70 1   
    69   64   71 1   
    70   65   66 1   
    71   65   67 1   
    72   72   73 1   
    73   72   76 1   
    74   73   74 1   
    75   73   77 1   
    76   73   78 1   
    77   74   75 2   
    78   74   79 1   
    79   79   80 1   
    80   79   86 1   
    81   80   81 1   
    82   80   83 1   
    83   80   87 1   
    84   81   82 2   
    85   81   93 1   
    86   83   84 1   
    87   83   85 1   
    88   83   88 1   
    89   84   90 1   
    90   84   91 1   
    91   84   92 1   
    92   85   89 1   
    93   93   94 1   
    94   93  101 1   
    95   94   95 1   
    96   94   97 1   
    97   94  102 1   
    98   95   96 2   
    99   95  112 1   
   100   97   98 1   
   101   97   99 1   
   102   97  103 1   
   103   98  100 1   
   104   98  104 1   
   105   98  105 1   
   106   99  106 1   
   107   99  107 1   
   108   99  108 1   
   109  100  109 1   
   110  100  110 1   
   111  100  111 1   
   112  112  113 1   
   113  112  119 1   
   114  113  114 1   
   115  113  116 1   
   116  113  120 1   
   117  114  115 2   
   118  114  126 1   
   119  116  117 1   
   120  116  118 1   
   121  116  121 1   
   122  117  123 1   
   123  117  124 1   
   124  117  125 1   
   125  118  122 1   
   126  126  127 1   
   127  126  133 1   
   128  127  128 1   
   129  127  130 1   
   130  127  134 1   
   131  128  129 2   
   132  128  140 1   
   133  130  131 1   
   134  130  132 1   
   135  130  135 1   
   136  131  137 1   
   137  131  138 1   
   138  131  139 1   
   139  132  136 1   
   140  140  141 1   
   141  140  149 1   
   142  141  142 1   
   143  141  144 1   
   144  141  150 1   
   145  142  143 2   
   146  142  162 1   
   147  144  145 1   
   148  144  151 1   
   149  144  152 1   
   150  145  146 1   
   151  145  153 1   
   152  145  154 1   
   153  146  147 1   
   154  146  155 1   
   155  146  156 1   
   156  147  148 1   
   157  147  157 1   
   158  147  158 1   
   159  148  159 1   
   160  148  160 1   
   161  148  161 1   
   162  162  163 1   
   163  162  171 1   
   164  163  164 1   
   165  163  166 1   
   166  163  172 1   
   167  164  165 2   
   168  164  177 1   
   169  166  167 1   
   170  166  173 1   
   171  166  174 1   
   172  167  168 1   
   173  167  175 1   
   174  167  176 1   
   175  168  169 1   
   176  168  170 1   
   177  177  178 1   
   178  177  182 1   
   179  178  179 1   
   180  178  180 1   
   181  178  181 1   
   182  184  185 1   
   183  184  186 1   
   184  187  188 1   
   185  187  189 1   
   186  190  191 1   
   187  190  192 1   
@<TRIPOS>SUBSTRUCTURE
     1 MOL         1 TEMP              0 ****  ****    0 ROOT
