@<TRIPOS>MOLECULE
MOL
  192   187     1     0     0
SMALL
resp


@<TRIPOS>ATOM
      1 C1         -9.3670   -0.3320   -2.7790 c3        1 MOL     -0.433117
      2 C2         -8.2920   -0.0270   -1.6820 c         1 MOL      0.781325
      3 O1         -7.1770    0.3090   -2.0690 o         1 MOL     -0.689817
      4 H1         -8.9760   -0.0540   -3.7570 hc        1 MOL      0.103210
      5 H2         -9.6040   -1.3950   -2.7710 hc        1 MOL      0.103210
      6 H3        -10.2700    0.2430   -2.5720 hc        1 MOL      0.103210
      7 N1         -8.5100   -0.2500   -0.4460 n         1 MOL     -0.544734
      8 C3         -7.5170    0.0730    0.6300 c3        1 MOL      0.043917
      9 C4         -6.7670   -1.1910    1.1740 c         1 MOL      0.672134
     10 O2         -6.4880   -1.2610    2.3630 o         1 MOL     -0.465137
     11 C5         -8.2520    0.8050    1.7240 c3        1 MOL     -0.174355
     12 C6         -9.4630    0.1490    2.4090 c         1 MOL      0.664454
     13 O3        -10.5850    0.2700    1.8140 o         1 MOL     -0.620516
     14 O4         -9.3660   -0.5000    3.5160 o         1 MOL     -0.620516
     15 H4         -9.4940   -0.3810   -0.2390 hn        1 MOL      0.239845
     16 H5         -6.7700    0.7500    0.2130 h1        1 MOL      0.123403
     17 H6         -8.5670    1.7980    1.3700 hc        1 MOL      0.054928
     18 H7         -7.4580    1.1040    2.4140 hc        1 MOL      0.054928
     19 N2         -6.5020   -2.1780    0.3100 n         1 MOL     -0.625166
     20 C7         -5.8600   -3.5320    0.6120 c3        1 MOL      0.220483
     21 C8         -4.4560   -3.5160    1.2490 c         1 MOL      0.430071
     22 O5         -4.1320   -4.3540    2.0450 o         1 MOL     -0.521323
     23 C9         -6.0220   -4.4550   -0.6410 c3        1 MOL     -0.149665
     24 C10        -7.5090   -4.6230   -1.0450 c3        1 MOL      0.033859
     25 C11        -7.5660   -5.7650   -2.0880 c3        1 MOL     -0.017260
     26 C12        -8.9980   -5.9460   -2.6670 c3        1 MOL      0.049564
     27 N3         -9.1010   -6.9810   -3.6700 n4        1 MOL     -0.158383
     28 H8         -6.7280   -1.8640   -0.6260 hn        1 MOL      0.304210
     29 H9         -6.4240   -4.0440    1.3880 h1        1 MOL      0.078302
     30 H10        -5.7090   -5.4430   -0.2960 hc        1 MOL      0.051626
     31 H11        -5.4820   -4.1430   -1.5390 hc        1 MOL      0.051626
     32 H12        -7.8940   -3.6690   -1.4170 hc        1 MOL      0.018391
     33 H13        -8.1330   -4.8490   -0.1900 hc        1 MOL      0.018391
     34 H14        -7.2100   -6.7160   -1.6740 hc        1 MOL      0.025251
     35 H15        -6.8690   -5.5550   -2.8960 hc        1 MOL      0.025251
     36 H16        -9.2450   -5.0150   -3.1800 hx        1 MOL      0.057072
     37 H17        -9.7320   -6.0850   -1.8740 hx        1 MOL      0.057072
     38 H18        -9.9070   -6.8710   -4.2730 hn        1 MOL      0.226681
     39 H19        -8.3290   -7.0630   -4.3120 hn        1 MOL      0.226681
     40 H20        -9.1180   -7.8960   -3.2370 hn        1 MOL      0.226681
     41 N4         -3.5970   -2.5070    0.9920 n         1 MOL     -0.353042
     42 C13        -3.5020   -1.4580   -0.0130 c3        1 MOL      0.057910
     43 C14        -3.7300   -0.0250    0.4010 c         1 MOL     -0.021644
     44 O6         -3.8670    0.2610    1.5760 o         1 MOL     -0.338618
     45 C15        -2.2480   -1.7310   -0.8990 c3        1 MOL     -0.023876
     46 C16        -1.0860   -2.1330   -0.0220 c         1 MOL      0.470389
     47 O7         -0.6270   -1.3030    0.8090 o         1 MOL     -0.622747
     48 O8         -0.5240   -3.2490   -0.1990 o         1 MOL     -0.622747
     49 H21        -2.7710   -2.6680    1.5540 hn        1 MOL      0.350139
     50 H22        -4.2480   -1.6290   -0.7950 h1        1 MOL      0.088783
     51 H23        -2.0250   -0.8170   -1.4390 hc        1 MOL      0.006183
     52 H24        -2.4470   -2.6220   -1.5020 hc        1 MOL      0.006183
     53 N5         -3.9230    0.9010   -0.5800 n         1 MOL     -0.199940
     54 C17        -4.1440    2.2850   -0.1810 c3        1 MOL     -0.163497
     55 C18        -2.8550    2.9500    0.3550 c         1 MOL      0.692425
     56 O9         -1.7550    2.4300    0.3500 o         1 MOL     -0.587523
     57 H25        -3.8040    0.6700   -1.5530 hn        1 MOL      0.287223
     58 H26        -4.9680    2.4800    0.5050 h1        1 MOL      0.101751
     59 H27        -4.5130    2.8280   -1.0520 h1        1 MOL      0.101751
     60 N6         -2.9780    4.1510    0.9270 n         1 MOL     -0.548174
     61 C19        -1.9150    4.9920    1.5830 c3        1 MOL      0.449835
     62 C20        -2.1230    6.4840    1.3400 c         1 MOL      0.488769
     63 O10        -3.2190    6.9360    1.0920 o         1 MOL     -0.544255
     64 C21        -1.8870    4.8070    3.1010 c3        1 MOL     -0.519692
     65 C22        -1.6810    3.2660    3.5020 c         1 MOL      0.768436
     66 O11        -2.6380    2.5980    3.9620 o         1 MOL     -0.648021
     67 O12        -0.5570    2.8390    3.1760 o         1 MOL     -0.648021
     68 H28        -3.9230    4.4990    0.9730 hn        1 MOL      0.279196
     69 H29        -0.9450    4.6580    1.2310 h1        1 MOL     -0.076643
     70 H30        -2.8010    5.1670    3.5580 hc        1 MOL      0.117582
     71 H31        -1.0640    5.3790    3.5390 hc        1 MOL      0.117582
     72 N7         -1.1260    7.3660    1.2670 n         1 MOL     -0.473610
     73 C23         0.3220    7.0400    1.1490 c3        1 MOL      0.026196
     74 C24         0.8580    6.3600   -0.1550 c         1 MOL      0.554418
     75 O13         0.4810    6.5980   -1.3300 o         1 MOL     -0.553575
     76 H32        -1.3830    8.3180    1.0400 hn        1 MOL      0.330577
     77 H33         0.5370    6.3510    1.9630 h1        1 MOL      0.033118
     78 H34         0.9190    7.9240    1.3790 h1        1 MOL      0.033118
     79 N8          1.7630    5.4140    0.0010 n         1 MOL     -0.482317
     80 C25         2.4440    4.7110   -1.0570 c3        1 MOL      0.128890
     81 C26         1.6380    3.4050   -1.2710 c         1 MOL      0.875685
     82 O14         1.1350    2.8430   -0.3040 o         1 MOL     -0.701039
     83 C27         3.8930    4.3950   -0.5770 c3        1 MOL      0.465013
     84 C28         4.8560    5.5780   -0.5690 c3        1 MOL     -0.192156
     85 O15         4.5420    3.5030   -1.4060 oh        1 MOL     -0.644590
     86 H35         2.0080    5.1630    0.9540 hn        1 MOL      0.246037
     87 H36         2.5370    5.3310   -1.9520 h1        1 MOL      0.034202
     88 H37         3.6960    3.9320    0.3840 h1        1 MOL     -0.087763
     89 H38         4.8710    2.8720   -0.7660 ho        1 MOL      0.350239
     90 H39         5.8260    5.3560   -0.1340 hc        1 MOL      0.043695
     91 H40         5.0100    5.8910   -1.6100 hc        1 MOL      0.043695
     92 H41         4.3710    6.3940   -0.0250 hc        1 MOL      0.043695
     93 N9          1.4090    3.1670   -2.5250 n         1 MOL     -0.878537
     94 C29         0.6580    2.0390   -3.0560 c3        1 MOL      0.303239
     95 C30         1.0160    0.7080   -2.3370 c         1 MOL      0.285927
     96 O16         0.4620    0.3290   -1.2780 o         1 MOL     -0.380294
     97 C31        -0.8850    2.3020   -3.0790 c3        1 MOL      0.292215
     98 C32        -1.2570    3.6800   -3.5780 c3        1 MOL      0.092733
     99 C33        -1.4860    1.1910   -3.9030 c3        1 MOL     -0.549295
    100 C34        -2.7220    3.9640   -3.5020 c3        1 MOL     -0.240801
    101 H42         1.8520    3.7810   -3.1920 hn        1 MOL      0.371178
    102 H43         0.9590    2.0140   -4.1050 h1        1 MOL      0.024680
    103 H44        -1.2390    2.2300   -2.0590 hc        1 MOL      0.009868
    104 H45        -0.9460    3.6280   -4.6200 hc        1 MOL     -0.028555
    105 H46        -0.7880    4.4770   -2.9930 hc        1 MOL     -0.028555
    106 H47        -0.9970    1.1700   -4.8820 hc        1 MOL      0.122592
    107 H48        -1.2710    0.1820   -3.5500 hc        1 MOL      0.122592
    108 H49        -2.5430    1.3750   -4.0800 hc        1 MOL      0.122592
    109 H50        -2.8220    5.0310   -3.7210 hc        1 MOL      0.059365
    110 H51        -3.3260    3.4260   -4.2360 hc        1 MOL      0.059365
    111 H52        -3.0910    3.7650   -2.4990 hc        1 MOL      0.059365
    112 N10         1.9860   -0.0370   -2.9570 n         1 MOL     -0.389569
    113 C35         2.2300   -1.4870   -2.6880 c3        1 MOL     -0.303376
    114 C36         3.6650   -1.9290   -2.9070 c         1 MOL      0.745016
    115 O17         3.9870   -3.0650   -2.5830 o         1 MOL     -0.576202
    116 C37         1.2720   -2.4150   -3.4080 c3        1 MOL      0.441442
    117 C38         1.4190   -2.1020   -4.8820 c3        1 MOL     -0.156578
    118 O18        -0.0030   -2.2130   -2.9540 oh        1 MOL     -0.553956
    119 H53         2.3630    0.2770   -3.8450 hn        1 MOL      0.255226
    120 H54         2.0580   -1.4870   -1.6070 h1        1 MOL      0.187500
    121 H55         1.5650   -3.4490   -3.2190 h1        1 MOL      0.007890
    122 H56        -0.0890   -2.5880   -2.0710 ho        1 MOL      0.322994
    123 H57         2.4270   -2.3060   -5.2530 hc        1 MOL      0.026328
    124 H58         0.7500   -2.7870   -5.4060 hc        1 MOL      0.026328
    125 H59         1.0650   -1.0960   -5.1080 hc        1 MOL      0.026328
    126 N11         4.5440   -1.0430   -3.3900 n         1 MOL     -0.548283
    127 C39         5.9920   -1.2310   -3.3910 c3        1 MOL     -0.060565
    128 C40         6.4800   -1.0620   -1.9240 c         1 MOL      0.638989
    129 O19         6.6270    0.0330   -1.4230 o         1 MOL     -0.517245
    130 C41         6.6230   -0.1200   -4.3270 c3        1 MOL      0.333521
    131 C42         8.1480   -0.1080   -4.3300 c3        1 MOL     -0.385834
    132 O20         6.2390   -0.4040   -5.6780 oh        1 MOL     -0.634400
    133 H60         4.1390   -0.2730   -3.8990 hn        1 MOL      0.344181
    134 H61         6.3400   -2.1550   -3.8500 h1        1 MOL      0.100805
    135 H62         6.1760    0.8710   -4.2140 h1        1 MOL      0.061502
    136 H63         6.9980   -0.7040   -6.1900 ho        1 MOL      0.397178
    137 H64         8.5600   -1.1070   -4.4420 hc        1 MOL      0.106858
    138 H65         8.4970    0.5560   -5.1250 hc        1 MOL      0.106858
    139 H66         8.4840    0.3110   -3.3800 hc        1 MOL      0.106858
    140 N12         6.5760   -2.2560   -1.2570 n         1 MOL     -0.872789
    141 C43         6.4920   -2.3690    0.2160 c3        1 MOL      0.451250
    142 C44         5.1310   -2.0310    0.7910 c         1 MOL      0.371590
    143 O21         4.3150   -1.3250    0.1880 o         1 MOL     -0.435902
    144 C45         7.6270   -1.6190    0.9260 c3        1 MOL     -0.572864
    145 C46         8.9890   -2.0500    0.4070 c3        1 MOL     -0.160791
    146 C47        10.2050   -1.4890    1.2220 c3        1 MOL      0.032080
    147 C48        11.5400   -1.9840    0.5820 c3        1 MOL     -0.146852
    148 N13        11.7860   -3.3680    0.9540 n4        1 MOL     -0.228399
    149 H67         6.3140   -3.1070   -1.7370 hn        1 MOL      0.403438
    150 H68         6.5880   -3.4400    0.4110 h1        1 MOL      0.032612
    151 H69         7.4920   -1.7270    2.0010 hc        1 MOL      0.185235
    152 H70         7.6730   -0.5340    0.7800 hc        1 MOL      0.185235
    153 H71         8.8830   -1.5950   -0.5700 hc        1 MOL      0.114538
    154 H72         8.9360   -3.1380    0.4500 hc        1 MOL      0.114538
    155 H73        10.1110   -1.8690    2.2400 hc        1 MOL      0.070001
    156 H74        10.2020   -0.4050    1.1870 hc        1 MOL      0.070001
    157 H75        12.3310   -1.3680    1.0260 hx        1 MOL      0.127596
    158 H76        11.4600   -1.9000   -0.5100 hx        1 MOL      0.127596
    159 H77        12.2430   -3.4950    1.8520 hn        1 MOL      0.232910
    160 H78        10.9520   -3.9430    0.9720 hn        1 MOL      0.232910
    161 H79        12.3850   -3.8380    0.2930 hn        1 MOL      0.232910
    162 N14         4.8890   -2.5210    2.0200 n         1 MOL     -0.399392
    163 C49         3.6950   -2.0340    2.8330 c3        1 MOL      0.425089
    164 C50         2.3270   -2.1300    2.1490 c         1 MOL      0.191744
    165 O22         1.6280   -1.1010    2.0780 o         1 MOL     -0.457125
    166 C51         3.7150   -2.7110    4.1800 c3        1 MOL     -0.068164
    167 C52         4.7220   -2.0950    5.1190 c3        1 MOL     -0.269366
    168 C53         5.0610   -3.0190    6.2670 c         1 MOL      0.713442
    169 O23         6.1800   -3.5270    6.2540 o         1 MOL     -0.661331
    170 O24         4.2910   -3.1660    7.2460 o         1 MOL     -0.661331
    171 H80         5.5640   -3.0910    2.5130 hn        1 MOL      0.234607
    172 H81         4.0000   -0.9940    2.9130 h1        1 MOL     -0.070446
    173 H82         3.8740   -3.7760    4.0240 hc        1 MOL      0.060440
    174 H83         2.7130   -2.6370    4.6200 hc        1 MOL      0.060440
    175 H84         4.3370   -1.1050    5.3570 hc        1 MOL      0.042899
    176 H85         5.6340   -1.8770    4.5600 hc        1 MOL      0.042899
    177 N15         1.9150   -3.2410    1.5400 n         1 MOL     -0.248724
    178 C54         2.5220   -4.6060    1.4440 c3        1 MOL     -0.008866
    179 H86         2.2910   -5.1700    2.3470 h1        1 MOL      0.028618
    180 H87         2.1130   -5.1250    0.5770 h1        1 MOL      0.028618
    181 H88         3.6030   -4.5170    1.3390 h1        1 MOL      0.028618
    182 H89         0.9670   -3.2410    1.1810 hn        1 MOL      0.331406
    183 Ca1         0.3250    1.0510    1.3530 Ca        1 MOL      1.747615
    184 O25         2.1620    1.3730    3.2060 oh        1 MOL     -0.886290
    185 H90         2.3240    1.4290    4.1500 ho        1 MOL      0.417643
    186 H91         3.0250    1.4270    2.8110 ho        1 MOL      0.417643
    187 O26         3.0730    0.9940    0.6080 oh        1 MOL     -0.886290
    188 H92         3.4180    0.1050    0.5430 ho        1 MOL      0.417643
    189 H93         3.8340    1.5520    0.4680 ho        1 MOL      0.417643
    190 O27        -1.5810    0.2320    3.2790 oh        1 MOL     -0.886290
    191 H94        -2.3090   -0.3140    2.9630 ho        1 MOL      0.417643
    192 H95        -1.9840    1.0790    3.4710 ho        1 MOL      0.417643
@<TRIPOS>BOND
     1    1    2 1   
     2    1    4 1   
     3    1    5 1   
     4    1    6 1   
     5    2    3 2   
     6    2    7 1   
     7    7    8 1   
     8    7   15 1   
     9    8    9 1   
    10    8   11 1   
    11    8   16 1   
    12    9   10 2   
    13    9   19 1   
    14   11   12 1   
    15   11   17 1   
    16   11   18 1   
    17   12   13 1   
    18   12   14 1   
    19   19   20 1   
    20   19   28 1   
    21   20   21 1   
    22   20   23 1   
    23   20   29 1   
    24   21   22 2   
    25   21   41 1   
    26   23   24 1   
    27   23   30 1   
    28   23   31 1   
    29   24   25 1   
    30   24   32 1   
    31   24   33 1   
    32   25   26 1   
    33   25   34 1   
    34   25   35 1   
    35   26   27 1   
    36   26   36 1   
    37   26   37 1   
    38   27   38 1   
    39   27   39 1   
    40   27   40 1   
    41   41   42 1   
    42   41   49 1   
    43   42   43 1   
    44   42   45 1   
    45   42   50 1   
    46   43   44 2   
    47   43   53 1   
    48   45   46 1   
    49   45   51 1   
    50   45   52 1   
    51   46   47 1   
    52   46   48 1   
    53   53   54 1   
    54   53   57 1   
    55   54   55 1   
    56   54   58 1   
    57   54   59 1   
    58   55   56 2   
    59   55   60 1   
    60   60   61 1   
    61   60   68 1   
    62   61   62 1   
    63   61   64 1   
    64   61   69 1   
    65   62   63 2   
    66   62   72 1   
    67   64   65 1   
    68   64   70 1   
    69   64   71 1   
    70   65   66 1   
    71   65   67 1   
    72   72   73 1   
    73   72   76 1   
    74   73   74 1   
    75   73   77 1   
    76   73   78 1   
    77   74   75 2   
    78   74   79 1   
    79   79   80 1   
    80   79   86 1   
    81   80   81 1   
    82   80   83 1   
    83   80   87 1   
    84   81   82 2   
    85   81   93 1   
    86   83   84 1   
    87   83   85 1   
    88   83   88 1   
    89   84   90 1   
    90   84   91 1   
    91   84   92 1   
    92   85   89 1   
    93   93   94 1   
    94   93  101 1   
    95   94   95 1   
    96   94   97 1   
    97   94  102 1   
    98   95   96 2   
    99   95  112 1   
   100   97   98 1   
   101   97   99 1   
   102   97  103 1   
   103   98  100 1   
   104   98  104 1   
   105   98  105 1   
   106   99  106 1   
   107   99  107 1   
   108   99  108 1   
   109  100  109 1   
   110  100  110 1   
   111  100  111 1   
   112  112  113 1   
   113  112  119 1   
   114  113  114 1   
   115  113  116 1   
   116  113  120 1   
   117  114  115 2   
   118  114  126 1   
   119  116  117 1   
   120  116  118 1   
   121  116  121 1   
   122  117  123 1   
   123  117  124 1   
   124  117  125 1   
   125  118  122 1   
   126  126  127 1   
   127  126  133 1   
   128  127  128 1   
   129  127  130 1   
   130  127  134 1   
   131  128  129 2   
   132  128  140 1   
   133  130  131 1   
   134  130  132 1   
   135  130  135 1   
   136  131  137 1   
   137  131  138 1   
   138  131  139 1   
   139  132  136 1   
   140  140  141 1   
   141  140  149 1   
   142  141  142 1   
   143  141  144 1   
   144  141  150 1   
   145  142  143 2   
   146  142  162 1   
   147  144  145 1   
   148  144  151 1   
   149  144  152 1   
   150  145  146 1   
   151  145  153 1   
   152  145  154 1   
   153  146  147 1   
   154  146  155 1   
   155  146  156 1   
   156  147  148 1   
   157  147  157 1   
   158  147  158 1   
   159  148  159 1   
   160  148  160 1   
   161  148  161 1   
   162  162  163 1   
   163  162  171 1   
   164  163  164 1   
   165  163  166 1   
   166  163  172 1   
   167  164  165 2   
   168  164  177 1   
   169  166  167 1   
   170  166  173 1   
   171  166  174 1   
   172  167  168 1   
   173  167  175 1   
   174  167  176 1   
   175  168  169 1   
   176  168  170 1   
   177  177  178 1   
   178  177  182 1   
   179  178  179 1   
   180  178  180 1   
   181  178  181 1   
   182  184  185 1   
   183  184  186 1   
   184  187  188 1   
   185  187  189 1   
   186  190  191 1   
   187  190  192 1   
@<TRIPOS>SUBSTRUCTURE
     1 MOL         1 TEMP              0 ****  ****    0 ROOT
