@<TRIPOS>MOLECULE
MOL
  188   182     1     0     0
SMALL
resp


@<TRIPOS>ATOM
      1 C1         -6.0070    1.2910    3.6050 c3        1 MOL     -0.498347
      2 C2         -6.4340    0.0850    2.7640 c         1 MOL      0.571643
      3 O1         -5.7120   -0.2650    1.8060 o         1 MOL     -0.474452
      4 H1         -6.7710    1.4990    4.3530 hc        1 MOL      0.127247
      5 H2         -5.0620    1.0720    4.1020 hc        1 MOL      0.127247
      6 H3         -5.8860    2.1610    2.9590 hc        1 MOL      0.127247
      7 N1         -7.5820   -0.5620    3.0870 n         1 MOL     -0.486428
      8 C3         -8.2060   -1.5890    2.2790 c3        1 MOL      0.147000
      9 C4         -8.2530   -1.3780    0.7790 c         1 MOL      0.322639
     10 O2         -8.1740   -2.3320   -0.0720 o         1 MOL     -0.402226
     11 C5         -7.6770   -2.9980    2.6180 c3        1 MOL     -0.259580
     12 C6         -8.5510   -4.1520    2.1270 c         1 MOL      0.625512
     13 O3         -9.7750   -3.9590    1.9390 o         1 MOL     -0.606733
     14 O4         -7.9340   -5.2120    1.8590 o         1 MOL     -0.606733
     15 H4         -8.1170   -0.2640    3.9020 hn        1 MOL      0.314361
     16 H5         -9.2760   -1.5480    2.4750 h1        1 MOL      0.019204
     17 H6         -7.4820   -3.0490    3.6820 hc        1 MOL      0.093915
     18 H7         -6.6810   -3.1340    2.1700 hc        1 MOL      0.093915
     19 N2         -8.4290   -0.1170    0.3710 n         1 MOL     -0.268755
     20 C7         -8.6410    0.2570   -1.0240 c3        1 MOL      0.125620
     21 C8         -7.4000    0.6890   -1.8140 c         1 MOL      0.409177
     22 O5         -7.4670    0.8010   -3.0160 o         1 MOL     -0.490133
     23 C9         -9.8430    1.2170   -1.1570 c3        1 MOL     -0.142241
     24 C10        -9.4790    2.6950   -0.9380 c3        1 MOL     -0.000086
     25 C11       -10.7510    3.5210   -0.8010 c3        1 MOL     -0.007364
     26 C12       -10.4440    4.9550   -0.2290 c3        1 MOL      0.115208
     27 N3        -11.5940    5.8570    0.0130 n4        1 MOL     -0.181652
     28 H8         -8.5650    0.6410    1.0180 hn        1 MOL      0.196955
     29 H9         -8.9460   -0.6640   -1.5320 h1        1 MOL      0.101504
     30 H10       -10.6090    1.0000   -0.4120 hc        1 MOL      0.058053
     31 H11       -10.1910    1.0660   -2.1790 hc        1 MOL      0.058053
     32 H12        -8.9820    3.2240   -1.7570 hc        1 MOL      0.039970
     33 H13        -8.8910    2.7920   -0.0350 hc        1 MOL      0.039970
     34 H14       -11.4240    3.0500   -0.0990 hc        1 MOL      0.016527
     35 H15       -11.2770    3.5930   -1.7580 hc        1 MOL      0.016527
     36 H16        -9.6390    5.4300   -0.7760 hx        1 MOL      0.024033
     37 H17        -9.9920    4.7970    0.7600 hx        1 MOL      0.024033
     38 H18       -11.3400    6.6640    0.5560 hn        1 MOL      0.219483
     39 H19       -12.1450    6.1250   -0.7890 hn        1 MOL      0.219483
     40 H20       -12.2280    5.3800    0.6310 hn        1 MOL      0.219483
     41 N4         -6.2450    0.8560   -1.0950 n         1 MOL     -0.364670
     42 C13        -4.8960    1.1060   -1.6180 c3        1 MOL     -0.127836
     43 C14        -4.3850    0.1350   -2.7010 c         1 MOL      0.726018
     44 O6         -4.6440   -1.0520   -2.6450 o         1 MOL     -0.444903
     45 C15        -3.9700    0.9790   -0.3900 c3        1 MOL     -0.122582
     46 C16        -2.5170    1.3350   -0.7350 c         1 MOL      0.539363
     47 O7         -1.9990    2.4260   -0.4720 o         1 MOL     -0.686408
     48 O8         -1.7660    0.4960   -1.2120 o         1 MOL     -0.686408
     49 H21        -6.2400    0.6130   -0.1050 hn        1 MOL      0.194890
     50 H22        -4.8320    2.1480   -1.9430 h1        1 MOL      0.055940
     51 H23        -3.8730   -0.0720   -0.0940 hc        1 MOL      0.073874
     52 H24        -4.2460    1.6590    0.4170 hc        1 MOL      0.073874
     53 N5         -3.7040    0.7360   -3.6860 n         1 MOL     -0.505414
     54 C17        -3.3600    0.1300   -4.9960 c3        1 MOL     -0.152867
     55 C18        -2.6520   -1.2320   -4.8980 c         1 MOL      0.591488
     56 O9         -2.9180   -2.1530   -5.6770 o         1 MOL     -0.516216
     57 H25        -3.4050    1.6800   -3.5040 hn        1 MOL      0.311610
     58 H26        -2.7480    0.8460   -5.5460 h1        1 MOL      0.101117
     59 H27        -4.2620   -0.0640   -5.5700 h1        1 MOL      0.101117
     60 N6         -1.8030   -1.2750   -3.8700 n         1 MOL     -0.680694
     61 C19        -1.0660   -2.4560   -3.4620 c3        1 MOL      0.093243
     62 C20        -1.3160   -3.0270   -2.0430 c         1 MOL      0.363192
     63 O10        -0.5830   -3.8550   -1.5020 o         1 MOL     -0.513824
     64 C21         0.4400   -2.3330   -3.8970 c3        1 MOL     -0.353682
     65 C22         1.1570   -1.2410   -3.1570 c         1 MOL      0.532988
     66 N7          2.4470   -1.2680   -3.1490 n         1 MOL     -0.626010
     67 O11         0.5750   -0.3610   -2.5270 o         1 MOL     -0.538133
     68 H28        -1.8220   -0.5670   -3.1480 hn        1 MOL      0.615865
     69 H29        -1.4270   -3.2930   -4.0660 h1        1 MOL      0.125664
     70 H30         0.6090   -2.2010   -4.9660 hc        1 MOL      0.143403
     71 H31         1.0060   -3.2430   -3.7130 hc        1 MOL      0.143403
     72 H32         2.9260   -2.0770   -3.5370 hn        1 MOL      0.316786
     73 H33         2.9150   -0.4730   -2.7440 hn        1 MOL      0.316786
     74 N8         -2.3820   -2.5640   -1.4800 n         1 MOL      0.000860
     75 C23        -2.9090   -3.0000   -0.1370 c3        1 MOL     -0.404774
     76 C24        -2.2650   -2.4590    1.1790 c         1 MOL      0.506381
     77 O12        -2.5970   -3.0240    2.2270 o         1 MOL     -0.501144
     78 H34        -2.9580   -1.8860   -1.9520 hn        1 MOL      0.064617
     79 H35        -2.7510   -4.0820   -0.0860 h1        1 MOL      0.209615
     80 H36        -3.9090   -2.6170    0.0390 h1        1 MOL      0.209615
     81 N9         -1.4130   -1.3870    1.1560 n         1 MOL     -0.284503
     82 C25        -0.7640   -0.7750    2.3380 c3        1 MOL     -0.017054
     83 C26         0.6240   -0.3330    1.8110 c         1 MOL      0.124499
     84 O13         0.7710    0.1810    0.7020 o         1 MOL     -0.467961
     85 C27        -1.6050    0.4160    2.8230 c3        1 MOL     -0.134628
     86 C28        -0.8210    1.4560    3.6210 ca        1 MOL     -0.097010
     87 C29        -0.2490    1.1330    4.8560 ca        1 MOL     -0.016522
     88 C30        -0.6390    2.7250    3.0060 ca        1 MOL     -0.016522
     89 C31         0.5570    2.0610    5.5400 ca        1 MOL     -0.392116
     90 C32         0.1710    3.6590    3.7130 ca        1 MOL     -0.392116
     91 C33         0.8510    3.2970    4.9730 ca        1 MOL      0.439505
     92 O14         1.6470    4.0980    5.6620 oh        1 MOL     -0.453568
     93 H37        -1.1490   -1.0180    0.2450 hn        1 MOL      0.193386
     94 H38        -0.6370   -1.5170    3.1220 h1        1 MOL      0.088755
     95 H39        -2.4280   -0.0140    3.4040 hc        1 MOL      0.127838
     96 H40        -2.0490    0.8970    1.9540 hc        1 MOL      0.127838
     97 H41        -0.5120    0.2530    5.4110 ha        1 MOL      0.121307
     98 H42        -1.1150    3.0140    2.0830 ha        1 MOL      0.121307
     99 H43         0.8480    1.8880    6.5610 ha        1 MOL      0.154093
    100 H44         0.2950    4.7000    3.4890 ha        1 MOL      0.154093
    101 H45         1.7720    4.9500    5.2370 ho        1 MOL      0.358508
    102 N10         1.6250   -0.4870    2.6550 n         1 MOL      0.072506
    103 C34         3.0520   -0.2420    2.2690 c3        1 MOL     -0.427325
    104 C35         3.4730   -1.3380    1.2320 c         1 MOL      0.409813
    105 O15         4.1660   -1.0470    0.2370 o         1 MOL     -0.516213
    106 C36         3.8850   -0.3860    3.5820 c3        1 MOL      0.056196
    107 C37         3.3010    0.5340    4.7080 c3        1 MOL      0.185712
    108 C38         5.3420   -0.0400    3.1860 c3        1 MOL     -0.346671
    109 C39         4.0930    0.8470    5.9580 c3        1 MOL     -0.508056
    110 H46         1.4370   -0.8240    3.5930 hn        1 MOL      0.160830
    111 H47         3.2590    0.7470    1.8620 h1        1 MOL      0.207153
    112 H48         3.8340   -1.3760    4.0320 hc        1 MOL      0.014667
    113 H49         2.4670   -0.0090    5.1420 hc        1 MOL      0.019700
    114 H50         2.7200    1.3650    4.3120 hc        1 MOL      0.019700
    115 H51         6.0040    0.0230    4.0510 hc        1 MOL      0.102781
    116 H52         5.6920   -0.8340    2.5370 hc        1 MOL      0.102781
    117 H53         5.4630    0.9080    2.6740 hc        1 MOL      0.102781
    118 H54         4.9140    1.5450    5.7620 hc        1 MOL      0.136319
    119 H55         3.4110    1.2380    6.7140 hc        1 MOL      0.136319
    120 H56         4.6410   -0.0410    6.2900 hc        1 MOL      0.136319
    121 N11         2.9360   -2.5040    1.2630 n         1 MOL      0.097088
    122 C40         2.8630   -3.5000    0.1510 c3        1 MOL     -0.282909
    123 C41         4.2650   -4.0480   -0.2630 c         1 MOL      0.346442
    124 O16         4.5610   -4.3180   -1.4510 o         1 MOL     -0.458615
    125 C42         1.8810   -4.6030    0.5250 c3        1 MOL      0.150347
    126 O17         0.6150   -4.0630    0.8190 oh        1 MOL     -0.551844
    127 H57         2.4860   -2.7180    2.1390 hn        1 MOL      0.150662
    128 H58         2.4300   -3.0030   -0.7160 h1        1 MOL      0.185908
    129 H59         2.2070   -5.1150    1.4270 h1        1 MOL      0.062576
    130 H60         1.7950   -5.3550   -0.2630 h1        1 MOL      0.062576
    131 H61         0.2150   -3.6920    0.0300 ho        1 MOL      0.370695
    132 N12         5.2300   -4.0640    0.6640 n         1 MOL     -0.281744
    133 C43         6.6530   -4.2300    0.5530 c3        1 MOL      0.403821
    134 C44         7.4300   -3.3200   -0.4160 c         1 MOL      0.369448
    135 O18         8.5210   -3.6170   -0.8650 o         1 MOL     -0.503225
    136 C45         6.9430   -5.7050    0.4860 c3        1 MOL     -0.406919
    137 H62         4.9020   -3.9300    1.6040 hn        1 MOL      0.171748
    138 H63         7.0220   -3.9920    1.5410 h1        1 MOL      0.005262
    139 H64         6.3150   -6.2550    1.1890 hc        1 MOL      0.104285
    140 H65         6.7650   -5.9960   -0.5460 hc        1 MOL      0.104285
    141 H66         7.9630   -5.8260    0.8530 hc        1 MOL      0.104285
    142 N13         6.7910   -2.1200   -0.6970 n         1 MOL     -0.553650
    143 C46         7.4160   -1.1070   -1.5410 c3        1 MOL      0.675225
    144 C47         7.8340    0.1590   -0.7550 c         1 MOL      0.176674
    145 O19         7.2020    0.6330    0.1790 o         1 MOL     -0.379837
    146 C48         6.4650   -0.9200   -2.7170 c3        1 MOL     -0.316161
    147 H67         5.9240   -1.9290   -0.2220 hn        1 MOL      0.200216
    148 H68         8.3430   -1.4630   -1.9830 h1        1 MOL     -0.058493
    149 H69         6.5380   -1.8340   -3.3060 hc        1 MOL      0.070711
    150 H70         5.4590   -0.7360   -2.3160 hc        1 MOL      0.070711
    151 H71         6.9260   -0.1000   -3.2760 hc        1 MOL      0.070711
    152 N14         8.8720    0.8100   -1.3610 n         1 MOL     -0.397950
    153 C49         9.4100    2.0830   -0.8740 c3        1 MOL     -0.011961
    154 C50         9.9110    2.1500    0.5890 c         1 MOL      0.387923
    155 O20         9.8770    3.1620    1.2760 o         1 MOL     -0.465855
    156 C51         8.4830    3.3040   -1.1080 c3        1 MOL      0.344830
    157 C52         8.0840    3.4030   -2.6180 c3        1 MOL     -0.295003
    158 C53         7.1240    4.6620   -2.7710 c         1 MOL      0.726089
    159 O21         7.3890    5.7960   -2.3090 o         1 MOL     -0.728545
    160 O22         6.0920    4.5010   -3.3980 o         1 MOL     -0.728545
    161 H72         9.4700    0.3330   -2.0140 hn        1 MOL      0.271156
    162 H73        10.2890    2.3320   -1.4810 h1        1 MOL      0.055574
    163 H74         9.0650    4.1940   -0.8580 hc        1 MOL     -0.059815
    164 H75         7.6390    3.2900   -0.4210 hc        1 MOL     -0.059815
    165 H76         7.5080    2.5040   -2.8280 hc        1 MOL      0.022726
    166 H77         8.9480    3.5570   -3.2640 hc        1 MOL      0.022726
    167 N15        10.3000    0.9820    1.1740 n         1 MOL     -0.286732
    168 C54        10.5990    0.6320    2.6010 c3        1 MOL     -0.125575
    169 H78         9.6680    0.5830    3.1650 h1        1 MOL      0.080424
    170 H79        11.0970   -0.3370    2.6420 h1        1 MOL      0.080424
    171 H80        11.2470    1.3930    3.0350 h1        1 MOL      0.080424
    172 H81        10.4330    0.1710    0.5990 hn        1 MOL      0.212612
    173 Ca1         0.4070    1.8320   -1.1880 Ca        1 MOL      1.795138
    174 O23        -0.3340    4.6200   -0.8830 oh        1 MOL     -0.850636
    175 H82        -0.4340    5.3300   -1.5200 ho        1 MOL      0.415279
    176 H83        -0.0760    5.0590   -0.0760 ho        1 MOL      0.415279
    177 O24         3.0640    0.8230   -1.3720 oh        1 MOL     -0.850636
    178 H84         3.3880    0.0930   -0.8470 ho        1 MOL      0.415279
    179 H85         3.8080    1.4260   -1.4160 ho        1 MOL      0.415279
    180 O25         2.1240    3.0780    0.3570 oh        1 MOL     -0.850636
    181 H86         1.9200    3.8860    0.8340 ho        1 MOL      0.415279
    182 H87         3.0740    3.0130    0.3870 ho        1 MOL      0.415279
    183 O26         2.2030    3.2690   -2.7320 oh        1 MOL     -0.850636
    184 H88         2.9180    3.7510   -2.3140 ho        1 MOL      0.415279
    185 H89         2.1980    3.5760   -3.6320 ho        1 MOL      0.415279
    186 O27        -0.3880    2.2330   -3.8150 oh        1 MOL     -0.850636
    187 H90        -0.6860    3.0830   -4.1290 ho        1 MOL      0.415279
    188 H91        -0.0100    1.8070   -4.5820 ho        1 MOL      0.415279
@<TRIPOS>BOND
     1    1    2 1   
     2    1    4 1   
     3    1    5 1   
     4    1    6 1   
     5    2    3 2   
     6    2    7 1   
     7    7    8 1   
     8    7   15 1   
     9    8    9 1   
    10    8   11 1   
    11    8   16 1   
    12    9   10 2   
    13    9   19 1   
    14   11   12 1   
    15   11   17 1   
    16   11   18 1   
    17   12   13 1   
    18   12   14 1   
    19   19   20 1   
    20   19   28 1   
    21   20   21 1   
    22   20   23 1   
    23   20   29 1   
    24   21   22 2   
    25   21   41 1   
    26   23   24 1   
    27   23   30 1   
    28   23   31 1   
    29   24   25 1   
    30   24   32 1   
    31   24   33 1   
    32   25   26 1   
    33   25   34 1   
    34   25   35 1   
    35   26   27 1   
    36   26   36 1   
    37   26   37 1   
    38   27   38 1   
    39   27   39 1   
    40   27   40 1   
    41   41   42 1   
    42   41   49 1   
    43   42   43 1   
    44   42   45 1   
    45   42   50 1   
    46   43   44 2   
    47   43   53 1   
    48   45   46 1   
    49   45   51 1   
    50   45   52 1   
    51   46   47 1   
    52   46   48 1   
    53   53   54 1   
    54   53   57 1   
    55   54   55 1   
    56   54   58 1   
    57   54   59 1   
    58   55   56 2   
    59   55   60 1   
    60   60   61 1   
    61   60   68 1   
    62   61   62 1   
    63   61   64 1   
    64   61   69 1   
    65   62   63 2   
    66   62   74 1   
    67   64   65 1   
    68   64   70 1   
    69   64   71 1   
    70   65   66 1   
    71   65   67 2   
    72   66   72 1   
    73   66   73 1   
    74   74   75 1   
    75   74   78 1   
    76   75   76 1   
    77   75   79 1   
    78   75   80 1   
    79   76   77 2   
    80   76   81 1   
    81   81   82 1   
    82   81   93 1   
    83   82   83 1   
    84   82   85 1   
    85   82   94 1   
    86   83   84 2   
    87   83  102 1   
    88   85   86 1   
    89   85   95 1   
    90   85   96 1   
    91   86   87 ar  
    92   86   88 ar  
    93   87   89 ar  
    94   87   97 1   
    95   88   90 ar  
    96   88   98 1   
    97   89   91 ar  
    98   89   99 1   
    99   90   91 ar  
   100   90  100 1   
   101   91   92 1   
   102   92  101 1   
   103  102  103 1   
   104  102  110 1   
   105  103  104 1   
   106  103  106 1   
   107  103  111 1   
   108  104  105 2   
   109  104  121 1   
   110  106  107 1   
   111  106  108 1   
   112  106  112 1   
   113  107  109 1   
   114  107  113 1   
   115  107  114 1   
   116  108  115 1   
   117  108  116 1   
   118  108  117 1   
   119  109  118 1   
   120  109  119 1   
   121  109  120 1   
   122  121  122 1   
   123  121  127 1   
   124  122  123 1   
   125  122  125 1   
   126  122  128 1   
   127  123  124 2   
   128  123  132 1   
   129  125  126 1   
   130  125  129 1   
   131  125  130 1   
   132  126  131 1   
   133  132  133 1   
   134  132  137 1   
   135  133  134 1   
   136  133  136 1   
   137  133  138 1   
   138  134  135 2   
   139  134  142 1   
   140  136  139 1   
   141  136  140 1   
   142  136  141 1   
   143  142  143 1   
   144  142  147 1   
   145  143  144 1   
   146  143  146 1   
   147  143  148 1   
   148  144  145 2   
   149  144  152 1   
   150  146  149 1   
   151  146  150 1   
   152  146  151 1   
   153  152  153 1   
   154  152  161 1   
   155  153  154 1   
   156  153  156 1   
   157  153  162 1   
   158  154  155 2   
   159  154  167 1   
   160  156  157 1   
   161  156  163 1   
   162  156  164 1   
   163  157  158 1   
   164  157  165 1   
   165  157  166 1   
   166  158  159 1   
   167  158  160 1   
   168  167  168 1   
   169  167  172 1   
   170  168  169 1   
   171  168  170 1   
   172  168  171 1   
   173  174  175 1   
   174  174  176 1   
   175  177  178 1   
   176  177  179 1   
   177  180  181 1   
   178  180  182 1   
   179  183  184 1   
   180  183  185 1   
   181  186  187 1   
   182  186  188 1   
@<TRIPOS>SUBSTRUCTURE
     1 MOL         1 TEMP              0 ****  ****    0 ROOT
