@<TRIPOS>MOLECULE
MOL
  175   173     1     0     0
SMALL
resp


@<TRIPOS>ATOM
      1 C1         -7.3270    7.1500    1.3580 c3        1 MOL     -0.349300
      2 C2         -8.3240    6.3820    0.5060 c         1 MOL      0.617757
      3 O1         -8.3410    6.6000   -0.7480 o         1 MOL     -0.603974
      4 H1         -6.3650    7.1880    0.8470 hc        1 MOL      0.084016
      5 H2         -7.6930    8.1650    1.5200 hc        1 MOL      0.084016
      6 H3         -7.2080    6.6490    2.3180 hc        1 MOL      0.084016
      7 N1         -8.9910    5.4300    1.0700 n         1 MOL     -0.447069
      8 C3         -9.8830    4.3160    0.5300 c3        1 MOL      0.097364
      9 C4         -9.1740    3.1520   -0.0980 c         1 MOL      0.657349
     10 O2         -9.8060    2.1780   -0.4210 o         1 MOL     -0.516929
     11 C5        -11.0060    3.9290    1.4900 c3        1 MOL     -0.222186
     12 C6        -12.2720    3.4530    0.6970 c         1 MOL      0.706826
     13 O3        -12.8930    2.6030    1.3290 o         1 MOL     -0.718747
     14 O4        -12.5120    3.8680   -0.4380 o         1 MOL     -0.718747
     15 H4         -8.9710    5.5940    2.0620 hn        1 MOL      0.246675
     16 H5        -10.2340    4.8300   -0.3590 h1        1 MOL      0.061906
     17 H6        -11.3310    4.7460    2.1340 hc        1 MOL      0.025609
     18 H7        -10.6640    3.1470    2.1770 hc        1 MOL      0.025609
     19 N2         -7.8670    3.0920   -0.1510 n         1 MOL     -0.639423
     20 C7         -7.0010    2.1880   -0.9410 c3        1 MOL      0.407033
     21 C8         -5.8030    1.7650   -0.0230 c         1 MOL      0.433679
     22 O5         -5.2900    2.6370    0.7110 o         1 MOL     -0.528713
     23 C9         -6.6240    2.8120   -2.3040 c3        1 MOL     -0.146544
     24 H8         -7.3660    3.6630    0.5200 hn        1 MOL      0.255051
     25 H9         -7.7210    1.3960   -1.1400 h1        1 MOL     -0.031581
     26 H10        -7.5660    3.0790   -2.7780 hc        1 MOL      0.048117
     27 H11        -6.0260    3.7290   -2.3200 hc        1 MOL      0.048117
     28 H12        -6.1580    2.0540   -2.9280 hc        1 MOL      0.048117
     29 N3         -5.2130    0.5580   -0.0720 n         1 MOL     -0.417936
     30 C10        -5.5510   -0.6040   -0.8580 c3        1 MOL     -0.079863
     31 C11        -5.3900   -1.9240   -0.1700 c         1 MOL      0.649543
     32 O6         -4.3610   -2.1410    0.4910 o         1 MOL     -0.594015
     33 C12        -4.7060   -0.5710   -2.1560 c3        1 MOL     -0.073132
     34 C13        -3.1880   -0.7150   -1.9390 c         1 MOL      0.749640
     35 O7         -2.5790   -1.5550   -2.6680 o         1 MOL     -0.744850
     36 O8         -2.5170    0.0320   -1.2280 o         1 MOL     -0.744850
     37 H13        -4.2920    0.5760    0.3250 hn        1 MOL      0.303191
     38 H14        -6.5750   -0.5130   -1.1970 h1        1 MOL      0.060689
     39 H15        -4.9450    0.3730   -2.6490 hc        1 MOL     -0.000811
     40 H16        -5.0120   -1.4780   -2.6620 hc        1 MOL     -0.000811
     41 N4         -6.2730   -2.8370   -0.4570 n         1 MOL     -0.550122
     42 C14        -6.1160   -4.1500    0.1500 c3        1 MOL      0.241778
     43 C15        -5.8770   -5.3260   -0.8250 c         1 MOL      0.474916
     44 O9         -6.8790   -5.9840   -1.2000 o         1 MOL     -0.557423
     45 H17        -6.9140   -2.6490   -1.2150 hn        1 MOL      0.353664
     46 H18        -7.0410   -4.4270    0.6570 h1        1 MOL      0.013071
     47 H19        -5.4050   -4.1540    0.9670 h1        1 MOL      0.013071
     48 N5         -4.6980   -5.6130   -1.3530 n         1 MOL     -0.472312
     49 C16        -3.4500   -5.1470   -0.8910 c3        1 MOL     -0.010477
     50 C17        -3.0930   -5.7470    0.4750 c         1 MOL      0.499817
     51 O10        -3.2370   -6.9380    0.7810 o         1 MOL     -0.567376
     52 C18        -2.4250   -5.4460   -1.9970 c3        1 MOL     -0.183322
     53 C19        -1.2060   -4.5440   -1.9330 c         1 MOL      0.564154
     54 N6         -0.1550   -4.7140   -2.6940 n         1 MOL     -0.597579
     55 O11        -1.1140   -3.5620   -1.1820 o         1 MOL     -0.610993
     56 H20        -4.6170   -6.4610   -1.8900 hn        1 MOL      0.318519
     57 H21        -3.4900   -4.0650   -0.7830 h1        1 MOL      0.166268
     58 H22        -2.7940   -5.2540   -2.9960 hc        1 MOL      0.088193
     59 H23        -2.1480   -6.5010   -2.0370 hc        1 MOL      0.088193
     60 H24        -0.0960   -5.5780   -3.2050 hn        1 MOL      0.296841
     61 H25         0.6580   -4.1300   -2.5530 hn        1 MOL      0.296841
     62 N7         -2.6150   -4.9640    1.3830 n         1 MOL     -0.243156
     63 C20        -2.0230   -5.2860    2.6790 c3        1 MOL     -0.219832
     64 C21        -0.4800   -5.2820    2.7920 c         1 MOL      0.535961
     65 O12        -0.0870   -5.6050    3.9060 o         1 MOL     -0.590499
     66 H26        -2.3880   -4.0470    1.0160 hn        1 MOL      0.233572
     67 H27        -2.3240   -6.2820    3.0140 h1        1 MOL      0.114604
     68 H28        -2.3280   -4.6040    3.4740 h1        1 MOL      0.114604
     69 N8          0.1420   -5.0820    1.7160 n         1 MOL      0.048959
     70 C22         1.5600   -5.0270    1.7140 c3        1 MOL     -0.299482
     71 C23         2.0900   -3.6450    1.4820 c         1 MOL      0.463942
     72 O13         1.3940   -2.7700    0.8530 o         1 MOL     -0.526306
     73 C24         2.1810   -6.1100    0.8430 c3        1 MOL      0.536571
     74 C25         1.8480   -7.4730    1.4320 c3        1 MOL     -0.375330
     75 O14         1.6570   -5.9500   -0.4990 oh        1 MOL     -0.684471
     76 H29        -0.3770   -4.7770    0.9020 hn        1 MOL      0.072258
     77 H30         1.8860   -5.2950    2.7250 h1        1 MOL      0.065769
     78 H31         3.2700   -6.0300    0.8160 h1        1 MOL     -0.054959
     79 H32         1.9650   -5.1150   -0.8600 ho        1 MOL      0.455449
     80 H33         2.0100   -7.4920    2.5080 hc        1 MOL      0.089369
     81 H34         0.7860   -7.5310    1.1910 hc        1 MOL      0.089369
     82 H35         2.4190   -8.2620    0.9550 hc        1 MOL      0.089369
     83 N9          3.3580   -3.3960    1.8570 n         1 MOL     -0.324625
     84 C26         4.1010   -2.0830    1.8320 c3        1 MOL      0.005470
     85 C27         4.8910   -2.0330    0.5010 c         1 MOL      0.251485
     86 O15         6.0170   -2.5320    0.3510 o         1 MOL     -0.545485
     87 C28         5.0000   -1.8880    3.0470 c3        1 MOL      0.216817
     88 C29         5.9360   -0.6520    3.0900 c3        1 MOL     -0.107551
     89 C30         4.0180   -1.9090    4.2830 c3        1 MOL     -0.604950
     90 C31         5.1550    0.7570    3.0960 c3        1 MOL      0.010669
     91 H36         3.8510   -4.1350    2.3280 hn        1 MOL      0.283247
     92 H37         3.3290   -1.3110    1.7710 h1        1 MOL      0.127895
     93 H38         5.5350   -2.8340    3.1580 hc        1 MOL     -0.000445
     94 H39         6.5440   -0.6460    2.1900 hc        1 MOL      0.048105
     95 H40         6.5190   -0.6910    4.0100 hc        1 MOL      0.048105
     96 H41         4.5210   -1.3390    5.0680 hc        1 MOL      0.152107
     97 H42         3.0060   -1.5420    4.0980 hc        1 MOL      0.152107
     98 H43         3.9600   -2.9630    4.5370 hc        1 MOL      0.152107
     99 H44         5.8690    1.5550    3.3060 hc        1 MOL     -0.013148
    100 H45         4.7830    1.0340    2.1080 hc        1 MOL     -0.013148
    101 H46         4.3160    0.8400    3.7760 hc        1 MOL     -0.013148
    102 N10         4.3040   -1.5360   -0.5750 n         1 MOL     -0.148465
    103 C32         4.8640   -1.5440   -1.8950 c3        1 MOL      0.265623
    104 C33         5.6160   -0.3100   -2.3790 c         1 MOL      0.354692
    105 O16         6.1780   -0.4050   -3.5050 o         1 MOL     -0.577755
    106 C34         3.7870   -2.0830   -2.8720 c3        1 MOL     -0.450677
    107 C35         2.6660   -2.9550   -2.3470 c         1 MOL      1.005868
    108 O17         2.9810   -4.1300   -1.9640 o         1 MOL     -0.762846
    109 O18         1.5140   -2.5070   -2.4050 o         1 MOL     -0.762846
    110 H47         3.3520   -1.2710   -0.3630 hn        1 MOL      0.188600
    111 H48         5.6860   -2.2480   -1.8570 h1        1 MOL      0.084229
    112 H49         4.2840   -2.6200   -3.6790 hc        1 MOL      0.073144
    113 H50         3.2670   -1.1730   -3.1670 hc        1 MOL      0.073144
    114 N11         5.9050    0.6800   -1.6180 n         1 MOL     -0.116765
    115 C36         6.6340    1.8970   -2.0300 c3        1 MOL     -0.022168
    116 C37         6.1480    3.0210   -1.0850 c         1 MOL      0.315767
    117 O19         5.5930    2.6860   -0.0440 o         1 MOL     -0.400288
    118 C38         8.2260    1.6420   -2.0070 c3        1 MOL     -0.074733
    119 C39         8.8110    1.4160   -0.6810 ca        1 MOL     -0.026017
    120 C40         8.5600    0.1620   -0.0180 ca        1 MOL     -0.041624
    121 C41         9.4010    2.4610    0.0010 ca        1 MOL     -0.041624
    122 C42         9.0000    0.0140    1.3130 ca        1 MOL     -0.178655
    123 C43         9.8880    2.3180    1.2920 ca        1 MOL     -0.178655
    124 C44         9.6810    1.0400    1.9500 ca        1 MOL     -0.066153
    125 H51         5.4820    0.7090   -0.7040 hn        1 MOL      0.173803
    126 H52         6.3250    2.1220   -3.0520 h1        1 MOL      0.072098
    127 H53         8.8260    2.4400   -2.4510 hc        1 MOL      0.062919
    128 H54         8.5260    0.8050   -2.6340 hc        1 MOL      0.062919
    129 H55         7.9370   -0.5510   -0.5430 ha        1 MOL      0.085615
    130 H56         9.6450    3.3870   -0.5010 ha        1 MOL      0.085615
    131 H57         8.8370   -0.9430    1.7890 ha        1 MOL      0.106853
    132 H58        10.5180    3.1090    1.6800 ha        1 MOL      0.106853
    133 H59        10.0860    0.9020    2.9370 ha        1 MOL      0.095110
    134 N12         6.0890    4.3240   -1.4610 n         1 MOL     -0.061298
    135 C45         5.9410    5.4140   -0.4800 c3        1 MOL     -0.216182
    136 C46         4.5000    5.7060   -0.0360 c         1 MOL      0.721662
    137 O20         4.1740    6.8080    0.2620 o         1 MOL     -0.563858
    138 C47         6.5610    6.5620   -1.2690 c3        1 MOL     -0.017346
    139 C48         6.2720    6.3560   -2.7200 c3        1 MOL     -0.056217
    140 C49         6.3480    4.8210   -2.7870 c3        1 MOL     -0.127532
    141 H60         6.5250    5.2530    0.4220 h1        1 MOL      0.098798
    142 H61         6.1130    7.5000   -0.9410 hc        1 MOL      0.035184
    143 H62         7.6320    6.5940   -1.0990 hc        1 MOL      0.035184
    144 H63         5.2360    6.6190   -2.9670 hc        1 MOL      0.059594
    145 H64         7.0150    6.8290   -3.3720 hc        1 MOL      0.059594
    146 H65         5.7290    4.3820   -3.5640 h1        1 MOL      0.064192
    147 H66         7.3570    4.4970   -3.0490 h1        1 MOL      0.064192
    148 N13         3.6310    4.7020   -0.0620 n         1 MOL     -0.487998
    149 C50         2.2060    4.8210    0.3130 c3        1 MOL     -0.164764
    150 C51         1.9430    5.3850    1.6980 c         1 MOL      0.545706
    151 O21         0.8410    5.7920    1.9010 o         1 MOL     -0.503684
    152 C52         1.4840    3.4760    0.0720 c3        1 MOL     -0.115217
    153 C53         2.0700    2.3280    0.9540 c3        1 MOL      0.076418
    154 C54         1.3690    1.0050    0.6740 c         1 MOL      0.555298
    155 O22         0.1060    0.9380    0.7200 o         1 MOL     -0.720731
    156 O23         2.0050    0.0460    0.1550 o         1 MOL     -0.720731
    157 H67         3.9280    3.8840   -0.5820 hn        1 MOL      0.306262
    158 H68         1.8310    5.5150   -0.4510 h1        1 MOL      0.123222
    159 H69         1.5480    3.1830   -0.9840 hc        1 MOL      0.083168
    160 H70         0.4710    3.7020    0.4110 hc        1 MOL      0.083168
    161 H71         1.8220    2.6800    1.9570 hc        1 MOL      0.002228
    162 H72         3.1550    2.2500    0.8350 hc        1 MOL      0.002228
    163 N14         2.9690    5.4770    2.5950 n         1 MOL     -0.242619
    164 C55         2.8510    5.9160    3.9960 c3        1 MOL     -0.107059
    165 H73         1.8300    5.7560    4.3410 h1        1 MOL      0.071023
    166 H74         3.5380    5.3410    4.6170 h1        1 MOL      0.071023
    167 H75         3.0960    6.9760    4.0680 h1        1 MOL      0.071023
    168 H76         3.8580    5.1830    2.2250 hn        1 MOL      0.195197
    169 Ca1        -0.1950   -1.1630   -0.8790 Ca        1 MOL      1.764876
    170 O24        -1.8390   -1.9900    1.2910 oh        1 MOL     -0.876162
    171 H77        -1.8390   -1.3300    1.9910 ho        1 MOL      0.420700
    172 H78        -2.7200   -1.9740    0.9340 ho        1 MOL      0.420700
    173 O25         1.1340    0.3390   -2.6680 oh        1 MOL     -0.876162
    174 H79         0.5300    1.0040   -2.9900 ho        1 MOL      0.420700
    175 H80         1.9170    0.4550   -3.1960 ho        1 MOL      0.420700
@<TRIPOS>BOND
     1    1    2 1   
     2    1    4 1   
     3    1    5 1   
     4    1    6 1   
     5    2    3 2   
     6    2    7 1   
     7    7    8 1   
     8    7   15 1   
     9    8    9 1   
    10    8   11 1   
    11    8   16 1   
    12    9   10 2   
    13    9   19 1   
    14   11   12 1   
    15   11   17 1   
    16   11   18 1   
    17   12   13 1   
    18   12   14 1   
    19   19   20 1   
    20   19   24 1   
    21   20   21 1   
    22   20   23 1   
    23   20   25 1   
    24   21   22 2   
    25   21   29 1   
    26   23   26 1   
    27   23   27 1   
    28   23   28 1   
    29   29   30 1   
    30   29   37 1   
    31   30   31 1   
    32   30   33 1   
    33   30   38 1   
    34   31   32 2   
    35   31   41 1   
    36   33   34 1   
    37   33   39 1   
    38   33   40 1   
    39   34   35 1   
    40   34   36 1   
    41   41   42 1   
    42   41   45 1   
    43   42   43 1   
    44   42   46 1   
    45   42   47 1   
    46   43   44 2   
    47   43   48 1   
    48   48   49 1   
    49   48   56 1   
    50   49   50 1   
    51   49   52 1   
    52   49   57 1   
    53   50   51 2   
    54   50   62 1   
    55   52   53 1   
    56   52   58 1   
    57   52   59 1   
    58   53   54 1   
    59   53   55 2   
    60   54   60 1   
    61   54   61 1   
    62   62   63 1   
    63   62   66 1   
    64   63   64 1   
    65   63   67 1   
    66   63   68 1   
    67   64   65 2   
    68   64   69 1   
    69   69   70 1   
    70   69   76 1   
    71   70   71 1   
    72   70   73 1   
    73   70   77 1   
    74   71   72 2   
    75   71   83 1   
    76   73   74 1   
    77   73   75 1   
    78   73   78 1   
    79   74   80 1   
    80   74   81 1   
    81   74   82 1   
    82   75   79 1   
    83   83   84 1   
    84   83   91 1   
    85   84   85 1   
    86   84   87 1   
    87   84   92 1   
    88   85   86 2   
    89   85  102 1   
    90   87   88 1   
    91   87   89 1   
    92   87   93 1   
    93   88   90 1   
    94   88   94 1   
    95   88   95 1   
    96   89   96 1   
    97   89   97 1   
    98   89   98 1   
    99   90   99 1   
   100   90  100 1   
   101   90  101 1   
   102  102  103 1   
   103  102  110 1   
   104  103  104 1   
   105  103  106 1   
   106  103  111 1   
   107  104  105 2   
   108  104  114 1   
   109  106  107 1   
   110  106  112 1   
   111  106  113 1   
   112  107  108 1   
   113  107  109 1   
   114  114  115 1   
   115  114  125 1   
   116  115  116 1   
   117  115  118 1   
   118  115  126 1   
   119  116  117 2   
   120  116  134 1   
   121  118  119 1   
   122  118  127 1   
   123  118  128 1   
   124  119  120 ar  
   125  119  121 ar  
   126  120  122 ar  
   127  120  129 1   
   128  121  123 ar  
   129  121  130 1   
   130  122  124 ar  
   131  122  131 1   
   132  123  124 ar  
   133  123  132 1   
   134  124  133 1   
   135  134  135 1   
   136  134  140 1   
   137  135  136 1   
   138  135  138 1   
   139  135  141 1   
   140  136  137 2   
   141  136  148 1   
   142  138  139 1   
   143  138  142 1   
   144  138  143 1   
   145  139  140 1   
   146  139  144 1   
   147  139  145 1   
   148  140  146 1   
   149  140  147 1   
   150  148  149 1   
   151  148  157 1   
   152  149  150 1   
   153  149  152 1   
   154  149  158 1   
   155  150  151 2   
   156  150  163 1   
   157  152  153 1   
   158  152  159 1   
   159  152  160 1   
   160  153  154 1   
   161  153  161 1   
   162  153  162 1   
   163  154  155 1   
   164  154  156 1   
   165  163  164 1   
   166  163  168 1   
   167  164  165 1   
   168  164  166 1   
   169  164  167 1   
   170  170  171 1   
   171  170  172 1   
   172  173  174 1   
   173  173  175 1   
@<TRIPOS>SUBSTRUCTURE
     1 MOL         1 TEMP              0 ****  ****    0 ROOT
