@<TRIPOS>MOLECULE
MOL
  175   173     1     0     0
SMALL
resp


@<TRIPOS>ATOM
      1 C1         -7.0230    7.9080    1.8180 c3        1 MOL     -0.343782
      2 C2         -7.8090    6.9730    0.8380 c         1 MOL      0.652465
      3 O1         -8.0010    7.3220   -0.2970 o         1 MOL     -0.558242
      4 H1         -7.7250    8.4090    2.4840 hc        1 MOL      0.080227
      5 H2         -6.3250    7.3140    2.4070 hc        1 MOL      0.080227
      6 H3         -6.4720    8.6540    1.2460 hc        1 MOL      0.080227
      7 N1         -8.4800    5.8940    1.3140 n         1 MOL     -0.479685
      8 C3         -9.2760    4.9160    0.5050 c3        1 MOL      0.129488
      9 C4         -8.5480    4.1240   -0.6190 c         1 MOL      0.626276
     10 O2         -9.1770    3.5100   -1.4690 o         1 MOL     -0.518968
     11 C5        -10.0060    3.9840    1.4580 c3        1 MOL     -0.240159
     12 C6        -11.1350    3.2050    0.8060 c         1 MOL      0.715559
     13 O3        -11.8440    3.9080   -0.0260 o         1 MOL     -0.723704
     14 O4        -11.3470    2.0150    1.0370 o         1 MOL     -0.723704
     15 H4         -8.2970    5.6390    2.2740 hn        1 MOL      0.257584
     16 H5         -9.9890    5.4600   -0.1150 h1        1 MOL      0.043678
     17 H6        -10.3720    4.5180    2.3360 hc        1 MOL      0.024923
     18 H7         -9.2970    3.3060    1.9340 hc        1 MOL      0.024923
     19 N2         -7.2250    4.0000   -0.5090 n         1 MOL     -0.637776
     20 C7         -6.2590    3.1610   -1.3100 c3        1 MOL      0.418290
     21 C8         -5.2940    2.5710   -0.3180 c         1 MOL      0.581427
     22 O5         -4.6490    3.2520    0.4290 o         1 MOL     -0.567352
     23 C9         -5.5490    4.0760   -2.3670 c3        1 MOL     -0.341789
     24 H8         -6.9030    4.2300    0.4220 hn        1 MOL      0.219346
     25 H9         -6.8720    2.4520   -1.8790 h1        1 MOL     -0.007499
     26 H10        -5.2840    3.5560   -3.2790 hc        1 MOL      0.089714
     27 H11        -6.2930    4.8360   -2.6070 hc        1 MOL      0.089714
     28 H12        -4.7290    4.5410   -1.8280 hc        1 MOL      0.089714
     29 N3         -4.9350    1.3120   -0.3150 n         1 MOL     -0.538639
     30 C10        -5.4200    0.3060   -1.2410 c3        1 MOL      0.083847
     31 C11        -5.5970   -1.0180   -0.5370 c         1 MOL      0.530171
     32 O6         -4.7960   -1.2540    0.3580 o         1 MOL     -0.515035
     33 C12        -4.4500    0.0490   -2.4690 c3        1 MOL     -0.305360
     34 C13        -3.0400   -0.3580   -2.1080 c         1 MOL      0.875462
     35 O7         -2.3790   -1.0850   -2.8560 o         1 MOL     -0.750878
     36 O8         -2.5490    0.0930   -1.0710 o         1 MOL     -0.750878
     37 H13        -4.1010    1.0690    0.1940 hn        1 MOL      0.342963
     38 H14        -6.4670    0.5270   -1.4740 h1        1 MOL      0.025373
     39 H15        -4.3590    0.9970   -3.0030 hc        1 MOL      0.056515
     40 H16        -4.9420   -0.5810   -3.2010 hc        1 MOL      0.056515
     41 N4         -6.6040   -1.8350   -0.8400 n         1 MOL     -0.436068
     42 C14        -6.9060   -3.1030   -0.2170 c3        1 MOL      0.099508
     43 C15        -6.8830   -4.3410   -1.1260 c         1 MOL      0.514364
     44 O9         -7.9550   -4.7870   -1.4850 o         1 MOL     -0.530519
     45 H17        -7.0670   -1.5990   -1.7040 hn        1 MOL      0.302340
     46 H18        -7.9350   -3.1510    0.1580 h1        1 MOL      0.043817
     47 H19        -6.2750   -3.1370    0.6740 h1        1 MOL      0.043817
     48 N5         -5.7160   -4.9600   -1.4300 n         1 MOL     -0.542925
     49 C16        -4.3940   -4.6610   -0.9340 c3        1 MOL      0.254334
     50 C17        -4.1950   -5.1650    0.5400 c         1 MOL      0.346574
     51 O10        -4.0860   -6.4070    0.7650 o         1 MOL     -0.513158
     52 C18        -3.3350   -5.3290   -1.9030 c3        1 MOL     -0.233222
     53 C19        -1.9230   -4.6810   -1.8140 c         1 MOL      0.681075
     54 N6         -0.9110   -5.1760   -2.4590 n         1 MOL     -0.691268
     55 O11        -1.7100   -3.6610   -1.1930 o         1 MOL     -0.679239
     56 H20        -5.7770   -5.7470   -2.0670 hn        1 MOL      0.313294
     57 H21        -4.2000   -3.5870   -0.9610 h1        1 MOL      0.010312
     58 H22        -3.7820   -5.0930   -2.8730 hc        1 MOL      0.075838
     59 H23        -3.2460   -6.4080   -1.8040 hc        1 MOL      0.075838
     60 H24        -0.9310   -6.1260   -2.8160 hn        1 MOL      0.334063
     61 H25        -0.0250   -4.6880   -2.3790 hn        1 MOL      0.334063
     62 N7         -3.8320   -4.2170    1.3830 n         1 MOL     -0.117648
     63 C20        -3.3740   -4.5070    2.7740 c3        1 MOL     -0.412377
     64 C21        -1.8670   -4.8350    2.9690 c         1 MOL      0.628871
     65 O12        -1.4780   -5.5010    3.9450 o         1 MOL     -0.602189
     66 H26        -3.7480   -3.2750    1.0150 hn        1 MOL      0.196805
     67 H27        -3.9730   -5.3900    3.0190 h1        1 MOL      0.172296
     68 H28        -3.5180   -3.6900    3.4870 h1        1 MOL      0.172296
     69 N8         -0.9760   -4.4360    2.0930 n         1 MOL     -0.316775
     70 C22         0.4570   -4.8450    2.0080 c3        1 MOL     -0.003347
     71 C23         1.2990   -3.6070    1.8100 c         1 MOL      0.452105
     72 O13         0.9620   -2.7990    0.9170 o         1 MOL     -0.514198
     73 C24         0.7100   -5.8100    0.7870 c3        1 MOL      0.343399
     74 C25         2.1870   -6.1780    0.4840 c3        1 MOL     -0.466884
     75 O14        -0.1020   -6.9770    1.0180 oh        1 MOL     -0.653717
     76 H29        -1.2930   -3.8520    1.3350 hn        1 MOL      0.196431
     77 H30         0.8200   -5.3540    2.9030 h1        1 MOL      0.047036
     78 H31         0.2620   -5.3470   -0.0840 h1        1 MOL      0.122984
     79 H32        -0.1180   -7.1540    1.9620 ho        1 MOL      0.404530
     80 H33         2.8030   -6.4890    1.3290 hc        1 MOL      0.128342
     81 H34         2.1600   -6.9630   -0.2750 hc        1 MOL      0.128342
     82 H35         2.5750   -5.3600   -0.1260 hc        1 MOL      0.128342
     83 N9          2.4940   -3.5410    2.4430 n         1 MOL     -0.549811
     84 C26         3.3410   -2.3520    2.2890 c3        1 MOL      0.290069
     85 C27         4.2140   -2.5560    0.9900 c         1 MOL      0.269895
     86 O15         5.2850   -3.1620    1.1080 o         1 MOL     -0.560925
     87 C28         4.2440   -2.0930    3.5320 c3        1 MOL      0.111213
     88 C29         5.1520   -0.8050    3.4930 c3        1 MOL     -0.409799
     89 C30         3.4130   -1.9830    4.8850 c3        1 MOL     -0.210620
     90 C31         4.4980    0.5030    3.5390 c3        1 MOL     -0.207401
     91 H36         2.9190   -4.4040    2.7680 hn        1 MOL      0.340313
     92 H37         2.7480   -1.4450    2.1160 h1        1 MOL      0.123563
     93 H38         4.9260   -2.9340    3.6940 hc        1 MOL     -0.006344
     94 H39         5.7100   -0.9240    2.5630 hc        1 MOL      0.131638
     95 H40         5.8250   -0.7390    4.3530 hc        1 MOL      0.131638
     96 H41         3.8920   -1.4500    5.7130 hc        1 MOL      0.048847
     97 H42         2.4770   -1.4700    4.6520 hc        1 MOL      0.048847
     98 H43         3.1580   -3.0020    5.1640 hc        1 MOL      0.048847
     99 H44         3.7010    0.5270    2.7880 hc        1 MOL      0.071825
    100 H45         4.0550    0.6160    4.5320 hc        1 MOL      0.071825
    101 H46         5.2090    1.3120    3.3790 hc        1 MOL      0.071825
    102 N10         3.6810   -2.1390   -0.1400 n         1 MOL      0.026896
    103 C32         4.3120   -2.3770   -1.4490 c3        1 MOL     -0.002411
    104 C33         5.6180   -1.5220   -1.6170 c         1 MOL      0.563372
    105 O16         6.2680   -1.7530   -2.6050 o         1 MOL     -0.537527
    106 C34         3.3740   -2.2450   -2.6040 c3        1 MOL     -0.179802
    107 C35         2.2990   -3.3690   -2.5880 c         1 MOL      0.633712
    108 O17         2.4650   -4.4860   -3.1810 o         1 MOL     -0.647525
    109 O18         1.1900   -3.1820   -2.0060 o         1 MOL     -0.647525
    110 H47         2.7770   -1.6940   -0.1470 hn        1 MOL     -0.081957
    111 H48         4.6860   -3.3960   -1.5490 h1        1 MOL      0.087359
    112 H49         3.8610   -2.1720   -3.5790 hc        1 MOL      0.055965
    113 H50         2.9130   -1.2740   -2.4460 hc        1 MOL      0.055965
    114 N11         6.0920   -0.6330   -0.6650 n         1 MOL     -0.572612
    115 C36         7.1190    0.2970   -0.8080 c3        1 MOL      0.609778
    116 C37         6.6490    1.6900   -0.1740 c         1 MOL      0.161550
    117 O19         5.9010    1.6840    0.8400 o         1 MOL     -0.428632
    118 C38         8.4540   -0.1880   -0.3230 c3        1 MOL     -0.340531
    119 C39         9.6450    0.8230   -0.3950 ca        1 MOL      0.146229
    120 C40         9.7960    1.8560    0.5260 ca        1 MOL     -0.171116
    121 C41        10.4670    0.8310   -1.5140 ca        1 MOL     -0.171116
    122 C42        10.7330    2.8560    0.3670 ca        1 MOL     -0.112514
    123 C43        11.3970    1.8270   -1.7040 ca        1 MOL     -0.112514
    124 C44        11.5650    2.8300   -0.7410 ca        1 MOL     -0.101091
    125 H51         5.5010   -0.5340    0.1540 hn        1 MOL      0.293878
    126 H52         7.2130    0.5490   -1.8670 h1        1 MOL     -0.092558
    127 H53         8.5820   -1.0880   -0.9250 hc        1 MOL      0.094090
    128 H54         8.2770   -0.3750    0.7370 hc        1 MOL      0.094090
    129 H55         9.3250    1.7710    1.4930 ha        1 MOL      0.125662
    130 H56        10.3150   -0.0050   -2.1900 ha        1 MOL      0.125662
    131 H57        11.0080    3.6320    1.0710 ha        1 MOL      0.106267
    132 H58        11.9690    1.8380   -2.6260 ha        1 MOL      0.106267
    133 H59        12.2970    3.6070   -0.8500 ha        1 MOL      0.098576
    134 N12         6.9450    2.8330   -0.8060 n         1 MOL      0.029514
    135 C45         6.9260    4.1370   -0.2040 c3        1 MOL     -0.205238
    136 C46         5.5140    4.7810   -0.1700 c         1 MOL      0.605368
    137 O20         5.3070    5.9970   -0.2180 o         1 MOL     -0.536226
    138 C47         7.9920    4.9250   -0.9230 c3        1 MOL      0.009231
    139 C48         7.7720    4.6330   -2.3860 c3        1 MOL     -0.140241
    140 C49         7.5580    3.0680   -2.1390 c3        1 MOL     -0.178728
    141 H60         7.2830    3.9610    0.8120 h1        1 MOL      0.095569
    142 H61         7.9050    5.9950   -0.7090 hc        1 MOL      0.037239
    143 H62         8.9820    4.6350   -0.5710 hc        1 MOL      0.037239
    144 H63         6.8690    5.0960   -2.7610 hc        1 MOL      0.086437
    145 H64         8.6580    4.8180   -2.9960 hc        1 MOL      0.086437
    146 H65         6.8590    2.6670   -2.8670 h1        1 MOL      0.100661
    147 H66         8.5470    2.6160   -2.1340 h1        1 MOL      0.100661
    148 N13         4.4270    3.9120   -0.0790 n         1 MOL     -0.396633
    149 C50         3.0090    4.3920   -0.1720 c3        1 MOL     -0.140222
    150 C51         2.6160    5.1950    1.0730 c         1 MOL      0.415801
    151 O21         1.5300    5.7600    1.1500 o         1 MOL     -0.499005
    152 C52         2.1700    3.1130   -0.3650 c3        1 MOL      0.038518
    153 C53         2.0420    2.1550    0.7920 c3        1 MOL      0.111316
    154 C54         1.1210    0.9130    0.4300 c         1 MOL      0.538208
    155 O22         1.6170   -0.1900    0.1030 o         1 MOL     -0.656041
    156 O23        -0.1220    1.0420    0.2790 o         1 MOL     -0.656041
    157 H67         4.6440    2.9330   -0.1640 hn        1 MOL      0.233508
    158 H68         2.8460    4.9600   -1.0810 h1        1 MOL      0.139443
    159 H69         2.4040    2.5040   -1.2270 hc        1 MOL      0.017111
    160 H70         1.1750    3.5260   -0.5830 hc        1 MOL      0.017111
    161 H71         1.7910    2.5230    1.7900 hc        1 MOL     -0.048454
    162 H72         3.0720    1.7990    0.8320 hc        1 MOL     -0.048454
    163 N14         3.3940    5.0850    2.1650 n         1 MOL     -0.127818
    164 C55         3.2790    5.7440    3.4470 c3        1 MOL     -0.018039
    165 H73         2.3920    6.3780    3.4510 h1        1 MOL      0.040009
    166 H74         3.1920    4.9940    4.2340 h1        1 MOL      0.040009
    167 H75         4.1640    6.3550    3.6230 h1        1 MOL      0.040009
    168 H76         4.2030    4.5000    2.0300 hn        1 MOL      0.144701
    169 Ca1        -0.4270   -1.3800   -0.9090 Ca        1 MOL      1.709158
    170 O24         0.1080    0.5620   -2.9800 oh        1 MOL     -0.821782
    171 H77         0.7420    0.7050   -3.6830 ho        1 MOL      0.402863
    172 H78        -0.2360    1.4390   -2.7990 ho        1 MOL      0.402863
    173 O25        -2.2040   -1.6640    1.1790 oh        1 MOL     -0.821782
    174 H79        -3.1110   -1.4000    1.0630 ho        1 MOL      0.402863
    175 H80        -1.7900   -0.9400    1.6540 ho        1 MOL      0.402863
@<TRIPOS>BOND
     1    1    2 1   
     2    1    4 1   
     3    1    5 1   
     4    1    6 1   
     5    2    3 2   
     6    2    7 1   
     7    7    8 1   
     8    7   15 1   
     9    8    9 1   
    10    8   11 1   
    11    8   16 1   
    12    9   10 2   
    13    9   19 1   
    14   11   12 1   
    15   11   17 1   
    16   11   18 1   
    17   12   13 1   
    18   12   14 1   
    19   19   20 1   
    20   19   24 1   
    21   20   21 1   
    22   20   23 1   
    23   20   25 1   
    24   21   22 2   
    25   21   29 1   
    26   23   26 1   
    27   23   27 1   
    28   23   28 1   
    29   29   30 1   
    30   29   37 1   
    31   30   31 1   
    32   30   33 1   
    33   30   38 1   
    34   31   32 2   
    35   31   41 1   
    36   33   34 1   
    37   33   39 1   
    38   33   40 1   
    39   34   35 1   
    40   34   36 1   
    41   41   42 1   
    42   41   45 1   
    43   42   43 1   
    44   42   46 1   
    45   42   47 1   
    46   43   44 2   
    47   43   48 1   
    48   48   49 1   
    49   48   56 1   
    50   49   50 1   
    51   49   52 1   
    52   49   57 1   
    53   50   51 2   
    54   50   62 1   
    55   52   53 1   
    56   52   58 1   
    57   52   59 1   
    58   53   54 1   
    59   53   55 2   
    60   54   60 1   
    61   54   61 1   
    62   62   63 1   
    63   62   66 1   
    64   63   64 1   
    65   63   67 1   
    66   63   68 1   
    67   64   65 2   
    68   64   69 1   
    69   69   70 1   
    70   69   76 1   
    71   70   71 1   
    72   70   73 1   
    73   70   77 1   
    74   71   72 2   
    75   71   83 1   
    76   73   74 1   
    77   73   75 1   
    78   73   78 1   
    79   74   80 1   
    80   74   81 1   
    81   74   82 1   
    82   75   79 1   
    83   83   84 1   
    84   83   91 1   
    85   84   85 1   
    86   84   87 1   
    87   84   92 1   
    88   85   86 2   
    89   85  102 1   
    90   87   88 1   
    91   87   89 1   
    92   87   93 1   
    93   88   90 1   
    94   88   94 1   
    95   88   95 1   
    96   89   96 1   
    97   89   97 1   
    98   89   98 1   
    99   90   99 1   
   100   90  100 1   
   101   90  101 1   
   102  102  103 1   
   103  102  110 1   
   104  103  104 1   
   105  103  106 1   
   106  103  111 1   
   107  104  105 2   
   108  104  114 1   
   109  106  107 1   
   110  106  112 1   
   111  106  113 1   
   112  107  108 1   
   113  107  109 1   
   114  114  115 1   
   115  114  125 1   
   116  115  116 1   
   117  115  118 1   
   118  115  126 1   
   119  116  117 2   
   120  116  134 1   
   121  118  119 1   
   122  118  127 1   
   123  118  128 1   
   124  119  120 ar  
   125  119  121 ar  
   126  120  122 ar  
   127  120  129 1   
   128  121  123 ar  
   129  121  130 1   
   130  122  124 ar  
   131  122  131 1   
   132  123  124 ar  
   133  123  132 1   
   134  124  133 1   
   135  134  135 1   
   136  134  140 1   
   137  135  136 1   
   138  135  138 1   
   139  135  141 1   
   140  136  137 2   
   141  136  148 1   
   142  138  139 1   
   143  138  142 1   
   144  138  143 1   
   145  139  140 1   
   146  139  144 1   
   147  139  145 1   
   148  140  146 1   
   149  140  147 1   
   150  148  149 1   
   151  148  157 1   
   152  149  150 1   
   153  149  152 1   
   154  149  158 1   
   155  150  151 2   
   156  150  163 1   
   157  152  153 1   
   158  152  159 1   
   159  152  160 1   
   160  153  154 1   
   161  153  161 1   
   162  153  162 1   
   163  154  155 1   
   164  154  156 1   
   165  163  164 1   
   166  163  168 1   
   167  164  165 1   
   168  164  166 1   
   169  164  167 1   
   170  170  171 1   
   171  170  172 1   
   172  173  174 1   
   173  173  175 1   
@<TRIPOS>SUBSTRUCTURE
     1 MOL         1 TEMP              0 ****  ****    0 ROOT
