@<TRIPOS>MOLECULE
MOL
  198   191     1     0     0
SMALL
resp


@<TRIPOS>ATOM
      1 C1          2.9190    2.0460   -4.2790 c3        1 MOL     -0.278965
      2 C2          4.1390    1.1400   -4.2750 c         1 MOL      0.597416
      3 O1          4.0690   -0.0060   -4.7910 o         1 MOL     -0.581299
      4 H1          2.7670    2.4540   -3.2800 hc        1 MOL      0.079890
      5 H2          3.0750    2.8610   -4.9850 hc        1 MOL      0.079890
      6 H3          2.0420    1.4720   -4.5740 hc        1 MOL      0.079890
      7 N1          5.2570    1.4730   -3.7020 n         1 MOL     -0.466688
      8 C3          6.5280    0.6840   -3.6170 c3        1 MOL      0.225164
      9 C4          6.4540   -0.3970   -2.4880 c         1 MOL      0.444403
     10 O2          5.4410   -0.8000   -1.9640 o         1 MOL     -0.458992
     11 C5          7.6750    1.6180   -3.3770 c3        1 MOL     -0.220884
     12 C6          7.5950    2.4630   -2.1310 c         1 MOL      0.703472
     13 O3          7.0300    3.5940   -2.1180 o         1 MOL     -0.793101
     14 O4          7.9740    1.9840   -1.0650 o         1 MOL     -0.793101
     15 H4          5.2860    2.4260   -3.3750 hn        1 MOL      0.272238
     16 H5          6.8240    0.1990   -4.5390 h1        1 MOL      0.045342
     17 H6          7.6300    2.3230   -4.2120 hc        1 MOL      0.047813
     18 H7          8.5960    1.0480   -3.4210 hc        1 MOL      0.047813
     19 N2          7.5930   -0.8610   -2.0690 n         1 MOL     -0.409237
     20 C7          7.8720   -1.7930   -1.0140 c3        1 MOL      0.019652
     21 C8          7.5240   -1.3980    0.4460 c         1 MOL      0.344441
     22 O5          7.3720   -2.3190    1.2920 o         1 MOL     -0.529728
     23 C9          9.4090   -2.1850   -1.1290 c3        1 MOL     -0.203016
     24 C10        10.4310   -1.1900   -0.4870 c3        1 MOL      0.126638
     25 C11        10.9710   -0.1340   -1.4830 c3        1 MOL     -0.201717
     26 C12        11.6450    0.9620   -0.6920 c3        1 MOL      0.232808
     27 N3         10.7580    2.1400   -0.4460 n4        1 MOL     -0.383550
     28 H8          8.4350   -0.5460   -2.5240 hn        1 MOL      0.240114
     29 H9          7.2410   -2.6690   -1.1820 h1        1 MOL      0.116854
     30 H10         9.6190   -2.3990   -2.1810 hc        1 MOL      0.076079
     31 H11         9.5200   -3.1540   -0.6370 hc        1 MOL      0.076079
     32 H12        11.3150   -1.6880   -0.0740 hc        1 MOL      0.022000
     33 H13         9.9450   -0.6190    0.2920 hc        1 MOL      0.022000
     34 H14        10.1530    0.3520   -2.0200 hc        1 MOL      0.042864
     35 H15        11.7180   -0.5240   -2.1780 hc        1 MOL      0.042864
     36 H16        12.5690    1.2910   -1.1760 hx        1 MOL      0.044101
     37 H17        12.0430    0.5900    0.2610 hx        1 MOL      0.044101
     38 H18         9.8860    1.9240   -0.0010 hn        1 MOL      0.266067
     39 H19        11.2560    2.8050    0.1380 hn        1 MOL      0.266067
     40 H20        10.4430    2.4860   -1.3350 hn        1 MOL      0.266067
     41 N4          7.2510   -0.1630    0.7040 n         1 MOL     -0.031425
     42 C13         6.6840    0.3310    1.9550 c3        1 MOL     -0.205784
     43 C14         5.5890    1.3870    1.7290 c         1 MOL      0.382363
     44 O6          5.7120    2.2240    0.8110 o         1 MOL     -0.549185
     45 C15         7.7560    0.8830    2.8920 c3        1 MOL     -0.070978
     46 C16         8.8260    1.7520    2.2170 c         1 MOL      0.672640
     47 O7         10.0400    1.3540    2.2590 o         1 MOL     -0.701482
     48 O8          8.5180    2.8530    1.7430 o         1 MOL     -0.701482
     49 H21         7.3280    0.5100   -0.0540 hn        1 MOL      0.347939
     50 H22         6.2090   -0.5320    2.4190 h1        1 MOL      0.186669
     51 H23         8.2490    0.1180    3.4910 hc        1 MOL      0.046065
     52 H24         7.2460    1.5600    3.5760 hc        1 MOL      0.046065
     53 N5          4.4850    1.4620    2.5200 n         1 MOL     -0.327038
     54 C17         4.1090    0.5630    3.5740 c3        1 MOL     -0.044239
     55 C18         3.5500   -0.8460    3.2060 c         1 MOL      0.509045
     56 O9          3.7380   -1.2500    2.0390 o         1 MOL     -0.479075
     57 H25         3.8950    2.2570    2.3190 hn        1 MOL      0.306804
     58 H26         3.3570    1.1210    4.1300 h1        1 MOL      0.057529
     59 H27         4.8990    0.4150    4.3130 h1        1 MOL      0.057529
     60 N6          3.0690   -1.6130    4.2300 n         1 MOL     -0.464979
     61 C19         2.7360   -3.0050    4.0390 c3        1 MOL      0.089198
     62 C20         1.2840   -3.2240    3.4450 c         1 MOL      0.599352
     63 O10         0.5900   -2.2940    3.1170 o         1 MOL     -0.527470
     64 C21         2.9860   -3.8340    5.3350 c3        1 MOL     -0.267121
     65 C22         2.2220   -3.4340    6.5700 c         1 MOL      0.735998
     66 O11         2.7750   -2.7530    7.4880 o         1 MOL     -0.689669
     67 O12         1.0050   -3.7650    6.5890 o         1 MOL     -0.689669
     68 H28         2.8640   -1.1050    5.0700 hn        1 MOL      0.307736
     69 H29         3.3480   -3.4340    3.2410 h1        1 MOL      0.057465
     70 H30         4.0460   -3.8170    5.5760 hc        1 MOL      0.041161
     71 H31         2.7660   -4.8760    5.0910 hc        1 MOL      0.041161
     72 N7          0.8870   -4.4880    3.2710 n         1 MOL     -0.332982
     73 C23        -0.3500   -4.8420    2.7090 c3        1 MOL     -0.151166
     74 C24        -0.4520   -4.8660    1.2280 c         1 MOL      0.473647
     75 O13        -1.4850   -5.2580    0.6510 o         1 MOL     -0.550197
     76 H32         1.4570   -5.2490    3.6200 hn        1 MOL      0.253740
     77 H33        -0.9930   -4.0700    3.1260 h1        1 MOL      0.118982
     78 H34        -0.7850   -5.7790    3.0720 h1        1 MOL      0.118982
     79 N8          0.6910   -4.7320    0.5340 n         1 MOL     -0.347510
     80 C25         0.6910   -4.6360   -0.9590 c3        1 MOL     -0.013100
     81 C26         0.2020   -3.2760   -1.4110 c         1 MOL      0.358016
     82 O14         0.6200   -2.3220   -0.8090 o         1 MOL     -0.457827
     83 C27         2.0770   -4.9140   -1.5060 c3        1 MOL      0.476898
     84 C28         2.8300   -6.1760   -1.1220 c3        1 MOL     -0.180226
     85 O15         2.1630   -4.7750   -2.8770 oh        1 MOL     -0.640819
     86 H35         1.4660   -4.5340    1.1520 hn        1 MOL      0.200596
     87 H36        -0.0010   -5.3960   -1.3000 h1        1 MOL      0.060676
     88 H37         2.6650   -4.1750   -0.9610 h1        1 MOL     -0.020055
     89 H38         2.4710   -3.8760   -3.0070 ho        1 MOL      0.404859
     90 H39         3.7880   -6.1620   -1.6380 hc        1 MOL      0.034126
     91 H40         2.9440   -6.1610   -0.0380 hc        1 MOL      0.034126
     92 H41         2.2950   -7.1060   -1.3380 hc        1 MOL      0.034126
     93 N9         -0.5590   -3.2850   -2.4670 n         1 MOL     -0.324864
     94 C29        -1.0670   -2.0860   -3.0990 c3        1 MOL      0.010811
     95 C30        -2.2080   -1.5180   -2.2380 c         1 MOL      0.457363
     96 O16        -2.2730   -0.2820   -2.0140 o         1 MOL     -0.521213
     97 C31        -1.3060   -2.3400   -4.5840 c3        1 MOL      0.145529
     98 C32        -0.0200   -2.1490   -5.3430 c3        1 MOL      0.034578
     99 C33        -2.4140   -1.4130   -5.1190 c3        1 MOL     -0.309847
    100 C34        -0.0140   -3.0880   -6.6040 c3        1 MOL     -0.384629
    101 H42        -0.6110   -4.1350   -3.0100 hn        1 MOL      0.243973
    102 H43        -0.2680   -1.3440   -3.0540 h1        1 MOL      0.065125
    103 H44        -1.5820   -3.3910   -4.7040 hc        1 MOL      0.014798
    104 H45         0.9020   -2.4010   -4.8280 hc        1 MOL      0.044390
    105 H46         0.0820   -1.1050   -5.6550 hc        1 MOL      0.044390
    106 H47        -3.3940   -1.6440   -4.7070 hc        1 MOL      0.079964
    107 H48        -2.1230   -0.4090   -4.8250 hc        1 MOL      0.079964
    108 H49        -2.4320   -1.5320   -6.2060 hc        1 MOL      0.079964
    109 H50        -0.1110   -4.1300   -6.3140 hc        1 MOL      0.093810
    110 H51        -0.7600   -2.7070   -7.3020 hc        1 MOL      0.093810
    111 H52         0.9510   -3.0420   -7.1190 hc        1 MOL      0.093810
    112 N10        -3.0750   -2.4140   -1.6610 n         1 MOL     -0.425617
    113 C35        -4.1120   -2.0750   -0.6890 c3        1 MOL      0.087629
    114 C36        -5.4310   -2.7290   -1.2260 c         1 MOL      0.539437
    115 O17        -5.2680   -3.7680   -1.8120 o         1 MOL     -0.517309
    116 C37        -3.8500   -2.5300    0.7630 c3        1 MOL      0.471893
    117 C38        -2.6640   -1.8260    1.4490 c3        1 MOL     -0.557899
    118 O18        -4.9690   -2.1440    1.5490 oh        1 MOL     -0.653151
    119 H53        -3.0380   -3.3500   -2.0340 hn        1 MOL      0.239741
    120 H54        -4.1470   -0.9800   -0.7090 h1        1 MOL      0.063654
    121 H55        -3.7770   -3.6110    0.8590 h1        1 MOL     -0.036543
    122 H56        -4.9010   -2.7200    2.3110 ho        1 MOL      0.388425
    123 H57        -2.3610   -2.2230    2.4180 hc        1 MOL      0.158408
    124 H58        -1.7450   -1.9160    0.8660 hc        1 MOL      0.158408
    125 H59        -2.8310   -0.7480    1.4650 hc        1 MOL      0.158408
    126 N11        -6.6290   -2.2030   -0.9160 n         1 MOL     -0.465691
    127 C39        -7.8790   -2.7670   -1.3200 c3        1 MOL     -0.129157
    128 C40        -9.0740   -1.7490   -1.1200 c         1 MOL      0.718251
    129 O19        -9.9530   -1.8750   -1.9540 o         1 MOL     -0.572795
    130 C41        -8.0980   -4.1340   -0.5080 c3        1 MOL      0.322309
    131 C42        -9.1260   -5.0320   -1.1220 c3        1 MOL     -0.393993
    132 O20        -8.4840   -3.8630    0.8220 oh        1 MOL     -0.649712
    133 H60        -6.6500   -1.2680   -0.5340 hn        1 MOL      0.249217
    134 H61        -7.7860   -2.9830   -2.3860 h1        1 MOL      0.131405
    135 H62        -7.1760   -4.6980   -0.3980 h1        1 MOL      0.067729
    136 H63        -8.4920   -4.6970    1.3100 ho        1 MOL      0.408294
    137 H64       -10.1420   -4.6240   -1.2020 hc        1 MOL      0.098970
    138 H65        -8.7290   -5.4230   -2.0550 hc        1 MOL      0.098970
    139 H66        -9.2640   -5.8760   -0.4540 hc        1 MOL      0.098970
    140 N12        -9.0460   -0.8200   -0.1300 n         1 MOL     -0.596180
    141 C43       -10.0350    0.3140   -0.0480 c3        1 MOL      0.035450
    142 C44        -9.4630    1.5850    0.6870 c         1 MOL      0.746282
    143 O21        -8.8390    1.4490    1.7080 o         1 MOL     -0.527690
    144 C45       -11.2500   -0.2430    0.6320 c3        1 MOL     -0.275601
    145 C46       -12.3670    0.8280    0.7630 c3        1 MOL     -0.067827
    146 C47       -13.7330    0.3230    1.3240 c3        1 MOL     -0.035522
    147 C48       -14.8130    1.3340    1.0460 c3        1 MOL      0.093649
    148 N13       -16.1590    0.9460    1.5420 n4        1 MOL     -0.267522
    149 H67        -8.2570   -0.7740    0.5020 hn        1 MOL      0.360854
    150 H68       -10.3300    0.7400   -1.0070 h1        1 MOL      0.086444
    151 H69       -11.0300   -0.4790    1.6770 hc        1 MOL      0.144357
    152 H70       -11.7340   -1.0310    0.0510 hc        1 MOL      0.144357
    153 H71       -12.5730    1.1350   -0.2570 hc        1 MOL      0.060908
    154 H72       -12.0700    1.6980    1.3410 hc        1 MOL      0.060908
    155 H73       -13.6840    0.1120    2.3960 hc        1 MOL      0.028568
    156 H74       -14.0310   -0.6460    0.9260 hc        1 MOL      0.028568
    157 H75       -14.8220    1.4590   -0.0440 hx        1 MOL      0.057263
    158 H76       -14.6180    2.3550    1.3840 hx        1 MOL      0.057263
    159 H77       -16.8300    1.6000    1.1560 hn        1 MOL      0.255091
    160 H78       -16.3700    0.0020    1.2370 hn        1 MOL      0.255091
    161 H79       -16.1810    0.9280    2.5480 hn        1 MOL      0.255091
    162 N14        -9.7710    2.7870    0.1230 n         1 MOL     -0.903153
    163 C49        -9.3920    4.1170    0.6830 c3        1 MOL      0.658583
    164 C50        -7.8680    4.4300    0.4120 c         1 MOL      0.161917
    165 O22        -7.1690    4.8010    1.3600 o         1 MOL     -0.496731
    166 C51       -10.2980    5.1810    0.0510 c3        1 MOL     -0.253819
    167 C52        -9.9390    6.5380    0.6140 c3        1 MOL     -0.174448
    168 C53       -11.1450    7.4600    0.4290 c         1 MOL      0.691027
    169 O23       -11.5820    8.0790    1.4490 o         1 MOL     -0.663698
    170 O24       -11.6070    7.7380   -0.7020 o         1 MOL     -0.663698
    171 H80       -10.1910    2.7900   -0.7980 hn        1 MOL      0.324138
    172 H81        -9.5790    4.2080    1.7590 h1        1 MOL     -0.008628
    173 H82       -11.3030    4.8990    0.3490 hc        1 MOL      0.056615
    174 H83       -10.0970    5.1920   -1.0200 hc        1 MOL      0.056615
    175 H84        -9.0980    6.8720    0.0040 hc        1 MOL      0.060294
    176 H85        -9.6690    6.4380    1.6730 hc        1 MOL      0.060294
    177 N15        -7.3070    4.1690   -0.7680 n         1 MOL     -0.160627
    178 C54        -7.9200    3.9400   -2.1180 c3        1 MOL     -0.244885
    179 H86        -8.2280    2.8980   -2.2040 h1        1 MOL      0.109029
    180 H87        -8.7900    4.5870   -2.2380 h1        1 MOL      0.109029
    181 H88        -7.1890    4.1680   -2.8930 h1        1 MOL      0.109029
    182 H89        -6.3020    4.2340   -0.7390 hn        1 MOL      0.260175
    183 Ca1         7.0680    4.4290    0.2910 Ca        1 MOL      1.774970
    184 O25         8.0640    6.2510    2.0650 oh        1 MOL     -0.820549
    185 H90         8.6450    6.9940    1.8960 ho        1 MOL      0.407907
    186 H91         8.5000    5.7620    2.7600 ho        1 MOL      0.407907
    187 O26         6.1460    4.2040    2.9770 oh        1 MOL     -0.820549
    188 H92         5.2590    4.3900    3.2780 ho        1 MOL      0.407907
    189 H93         6.7030    4.3510    3.7390 ho        1 MOL      0.407907
    190 O27         4.5170    4.9680    0.0050 oh        1 MOL     -0.820549
    191 H94         3.7760    4.3660    0.1150 ho        1 MOL      0.407907
    192 H95         4.1130    5.7720   -0.3310 ho        1 MOL      0.407907
    193 O28         9.4880    5.1430   -0.5190 oh        1 MOL     -0.820549
    194 H96        10.3730    5.1620   -0.1630 ho        1 MOL      0.407907
    195 H97         9.5920    4.8070   -1.4060 ho        1 MOL      0.407907
    196 O29         6.3890    6.7760   -0.5690 oh        1 MOL     -0.820549
    197 H98         6.8550    7.2270   -1.2800 ho        1 MOL      0.407907
    198 H99         5.5060    7.1630   -0.5910 ho        1 MOL      0.407907
@<TRIPOS>BOND
     1    1    2 1   
     2    1    4 1   
     3    1    5 1   
     4    1    6 1   
     5    2    3 2   
     6    2    7 1   
     7    7    8 1   
     8    7   15 1   
     9    8    9 1   
    10    8   11 1   
    11    8   16 1   
    12    9   10 2   
    13    9   19 1   
    14   11   12 1   
    15   11   17 1   
    16   11   18 1   
    17   12   13 1   
    18   12   14 1   
    19   19   20 1   
    20   19   28 1   
    21   20   21 1   
    22   20   23 1   
    23   20   29 1   
    24   21   22 2   
    25   21   41 1   
    26   23   24 1   
    27   23   30 1   
    28   23   31 1   
    29   24   25 1   
    30   24   32 1   
    31   24   33 1   
    32   25   26 1   
    33   25   34 1   
    34   25   35 1   
    35   26   27 1   
    36   26   36 1   
    37   26   37 1   
    38   27   38 1   
    39   27   39 1   
    40   27   40 1   
    41   41   42 1   
    42   41   49 1   
    43   42   43 1   
    44   42   45 1   
    45   42   50 1   
    46   43   44 2   
    47   43   53 1   
    48   45   46 1   
    49   45   51 1   
    50   45   52 1   
    51   46   47 1   
    52   46   48 1   
    53   53   54 1   
    54   53   57 1   
    55   54   55 1   
    56   54   58 1   
    57   54   59 1   
    58   55   56 2   
    59   55   60 1   
    60   60   61 1   
    61   60   68 1   
    62   61   62 1   
    63   61   64 1   
    64   61   69 1   
    65   62   63 2   
    66   62   72 1   
    67   64   65 1   
    68   64   70 1   
    69   64   71 1   
    70   65   66 1   
    71   65   67 1   
    72   72   73 1   
    73   72   76 1   
    74   73   74 1   
    75   73   77 1   
    76   73   78 1   
    77   74   75 2   
    78   74   79 1   
    79   79   80 1   
    80   79   86 1   
    81   80   81 1   
    82   80   83 1   
    83   80   87 1   
    84   81   82 2   
    85   81   93 1   
    86   83   84 1   
    87   83   85 1   
    88   83   88 1   
    89   84   90 1   
    90   84   91 1   
    91   84   92 1   
    92   85   89 1   
    93   93   94 1   
    94   93  101 1   
    95   94   95 1   
    96   94   97 1   
    97   94  102 1   
    98   95   96 2   
    99   95  112 1   
   100   97   98 1   
   101   97   99 1   
   102   97  103 1   
   103   98  100 1   
   104   98  104 1   
   105   98  105 1   
   106   99  106 1   
   107   99  107 1   
   108   99  108 1   
   109  100  109 1   
   110  100  110 1   
   111  100  111 1   
   112  112  113 1   
   113  112  119 1   
   114  113  114 1   
   115  113  116 1   
   116  113  120 1   
   117  114  115 2   
   118  114  126 1   
   119  116  117 1   
   120  116  118 1   
   121  116  121 1   
   122  117  123 1   
   123  117  124 1   
   124  117  125 1   
   125  118  122 1   
   126  126  127 1   
   127  126  133 1   
   128  127  128 1   
   129  127  130 1   
   130  127  134 1   
   131  128  129 2   
   132  128  140 1   
   133  130  131 1   
   134  130  132 1   
   135  130  135 1   
   136  131  137 1   
   137  131  138 1   
   138  131  139 1   
   139  132  136 1   
   140  140  141 1   
   141  140  149 1   
   142  141  142 1   
   143  141  144 1   
   144  141  150 1   
   145  142  143 2   
   146  142  162 1   
   147  144  145 1   
   148  144  151 1   
   149  144  152 1   
   150  145  146 1   
   151  145  153 1   
   152  145  154 1   
   153  146  147 1   
   154  146  155 1   
   155  146  156 1   
   156  147  148 1   
   157  147  157 1   
   158  147  158 1   
   159  148  159 1   
   160  148  160 1   
   161  148  161 1   
   162  162  163 1   
   163  162  171 1   
   164  163  164 1   
   165  163  166 1   
   166  163  172 1   
   167  164  165 2   
   168  164  177 1   
   169  166  167 1   
   170  166  173 1   
   171  166  174 1   
   172  167  168 1   
   173  167  175 1   
   174  167  176 1   
   175  168  169 1   
   176  168  170 1   
   177  177  178 1   
   178  177  182 1   
   179  178  179 1   
   180  178  180 1   
   181  178  181 1   
   182  184  185 1   
   183  184  186 1   
   184  187  188 1   
   185  187  189 1   
   186  190  191 1   
   187  190  192 1   
   188  193  194 1   
   189  193  195 1   
   190  196  197 1   
   191  196  198 1   
@<TRIPOS>SUBSTRUCTURE
     1 MOL         1 TEMP              0 ****  ****    0 ROOT
