@<TRIPOS>MOLECULE
MOL
  181   177     1     0     0
SMALL
resp


@<TRIPOS>ATOM
      1 C1          7.0640    0.9010    6.5280 c3        1 MOL     -0.428189
      2 C2          6.2540    0.5090    5.2900 c         1 MOL      0.780110
      3 O1          5.1030    0.8090    5.1250 o         1 MOL     -0.601958
      4 H1          6.4240    1.4450    7.2220 hc        1 MOL      0.104903
      5 H2          7.4450    0.0020    7.0130 hc        1 MOL      0.104903
      6 H3          7.8990    1.5360    6.2300 hc        1 MOL      0.104903
      7 N1          6.8250   -0.0990    4.2750 n         1 MOL     -0.480049
      8 C3          8.2410   -0.1410    3.8910 c3        1 MOL     -0.038911
      9 C4          8.5380   -1.4310    3.1880 c         1 MOL      0.553443
     10 O2          7.8480   -2.4350    3.4010 o         1 MOL     -0.482101
     11 C5          8.5290    1.1210    3.0720 c3        1 MOL     -0.207377
     12 C6          7.7260    1.2460    1.7630 c         1 MOL      0.696905
     13 O3          6.9490    2.2180    1.5930 o         1 MOL     -0.726367
     14 O4          7.9140    0.5860    0.7060 o         1 MOL     -0.726367
     15 H4          6.2260   -0.5080    3.5680 hn        1 MOL      0.267035
     16 H5          8.7870   -0.0200    4.8280 h1        1 MOL      0.078988
     17 H6          9.5660    1.1130    2.7700 hc        1 MOL      0.058313
     18 H7          8.3820    2.0690    3.5800 hc        1 MOL      0.058313
     19 N2          9.5930   -1.4570    2.3890 n         1 MOL     -0.631231
     20 C7         10.0050   -2.5860    1.5240 c3        1 MOL      0.532236
     21 C8          8.8040   -3.2190    0.7260 c         1 MOL      0.189367
     22 O5          8.9060   -4.4670    0.4750 o         1 MOL     -0.521552
     23 C9         10.8820   -3.6850    2.1370 c3        1 MOL     -0.531355
     24 H8         10.2500   -0.6910    2.4590 hn        1 MOL      0.304291
     25 H9         10.5670   -2.1570    0.7010 h1        1 MOL     -0.033811
     26 H10        11.2520   -4.3600    1.3640 hc        1 MOL      0.133299
     27 H11        11.7480   -3.1510    2.5260 hc        1 MOL      0.133299
     28 H12        10.2700   -4.3010    2.7920 hc        1 MOL      0.133299
     29 N3          7.7840   -2.4850    0.3160 n         1 MOL      0.065491
     30 C10         6.7510   -2.9700   -0.5480 c3        1 MOL      0.003484
     31 C11         6.5890   -2.0720   -1.8100 c         1 MOL      0.246182
     32 O6          6.9520   -0.8910   -1.8000 o         1 MOL     -0.439172
     33 C12         5.4100   -3.0910    0.2850 c3        1 MOL      0.040607
     34 C13         5.0120   -1.8270    1.0110 c         1 MOL      0.622010
     35 O7          4.5300   -1.9650    2.1530 o         1 MOL     -0.648385
     36 O8          5.1160   -0.7070    0.4470 o         1 MOL     -0.648385
     37 H13         7.8100   -1.4780    0.2710 hn        1 MOL      0.096124
     38 H14         6.8360   -3.9980   -0.9150 h1        1 MOL      0.026130
     39 H15         5.3410   -4.0000    0.8840 hc        1 MOL     -0.010377
     40 H16         4.5340   -3.1680   -0.3720 hc        1 MOL     -0.010377
     41 N4          6.1260   -2.7280   -2.8590 n         1 MOL     -0.206876
     42 C14         6.0280   -2.1730   -4.1790 c3        1 MOL     -0.337386
     43 C15         4.8230   -1.2280   -4.3170 c         1 MOL      0.635579
     44 O9          4.8990   -0.2070   -5.0200 o         1 MOL     -0.568857
     45 H17         5.8520   -3.6950   -2.7440 hn        1 MOL      0.266413
     46 H18         5.8540   -2.9630   -4.9060 h1        1 MOL      0.164513
     47 H19         6.9190   -1.6500   -4.5040 h1        1 MOL      0.164513
     48 N5          3.7310   -1.5780   -3.6440 n         1 MOL     -0.454516
     49 C16         2.5520   -0.6570   -3.7060 c3        1 MOL     -0.060864
     50 C17         2.6900    0.5930   -2.8120 c         1 MOL      0.502180
     51 O10         3.4670    0.6790   -1.9200 o         1 MOL     -0.520784
     52 C18         1.3480   -1.4670   -3.1860 c3        1 MOL     -0.045710
     53 C19         1.0720   -2.8110   -3.8780 c         1 MOL      0.661265
     54 N6          0.9740   -3.8680   -3.1080 n         1 MOL     -0.817118
     55 O11         0.6820   -2.9030   -5.0390 o         1 MOL     -0.544114
     56 H20         3.7110   -2.3710   -3.0280 hn        1 MOL      0.270666
     57 H21         2.4040   -0.3340   -4.7420 h1        1 MOL      0.111260
     58 H22         0.4710   -0.8380   -3.3280 hc        1 MOL      0.026707
     59 H23         1.4490   -1.6690   -2.1150 hc        1 MOL      0.026707
     60 H24         1.1230   -3.7630   -2.1160 hn        1 MOL      0.385070
     61 H25         0.3690   -4.6010   -3.4300 hn        1 MOL      0.385070
     62 N7          1.7550    1.5640   -2.9120 n         1 MOL     -0.434119
     63 C20         1.7900    2.9700   -2.3490 c3        1 MOL     -0.065850
     64 C21         0.8630    3.8960   -3.1120 c         1 MOL      0.614777
     65 O12         0.9050    3.9020   -4.3620 o         1 MOL     -0.579789
     66 H26         0.9360    1.4000   -3.4870 hn        1 MOL      0.305057
     67 H27         2.7810    3.4190   -2.4020 h1        1 MOL      0.093282
     68 H28         1.5230    2.8740   -1.2900 h1        1 MOL      0.093282
     69 N8          0.1350    4.8210   -2.4880 n         1 MOL     -0.470725
     70 C22        -0.2160    4.9960   -1.0530 c3        1 MOL     -0.050549
     71 C23        -1.5710    4.4380   -0.6220 c         1 MOL      0.630252
     72 O13        -2.5810    4.6520   -1.2780 o         1 MOL     -0.498985
     73 C24        -0.1310    6.4990   -0.6040 c3        1 MOL      0.391718
     74 C25         1.1910    6.9490   -0.0410 c3        1 MOL     -0.260521
     75 O14        -0.5300    7.2850   -1.6530 oh        1 MOL     -0.634655
     76 H29        -0.1910    5.5450   -3.1160 hn        1 MOL      0.325909
     77 H30         0.5780    4.5340   -0.4580 h1        1 MOL      0.032947
     78 H31        -0.8850    6.6130    0.1680 h1        1 MOL      0.002774
     79 H32        -0.7390    8.1870   -1.3940 ho        1 MOL      0.415024
     80 H33         1.3460    6.4200    0.8960 hc        1 MOL      0.056473
     81 H34         2.0220    6.7540   -0.7300 hc        1 MOL      0.056473
     82 H35         1.2180    8.0190    0.1370 hc        1 MOL      0.056473
     83 N9         -1.5660    3.7270    0.5340 n         1 MOL     -0.582642
     84 C26        -2.6660    2.9810    1.0910 c3        1 MOL      0.057557
     85 C27        -3.4340    3.8620    2.0560 c         1 MOL      0.692958
     86 O15        -2.7180    4.4550    2.9350 o         1 MOL     -0.626268
     87 C28        -2.2180    1.6930    1.7850 c3        1 MOL     -0.035757
     88 C29        -1.1930    0.8230    0.9990 c3        1 MOL      0.057974
     89 C30        -3.4320    0.8700    2.3190 c3        1 MOL     -0.191884
     90 C31        -1.5840    0.4010   -0.4480 c3        1 MOL     -0.479226
     91 H36        -0.7040    3.7290    1.0620 hn        1 MOL      0.295289
     92 H37        -3.3590    2.7130    0.2930 h1        1 MOL      0.100006
     93 H38        -1.7590    1.9430    2.7380 hc        1 MOL      0.034266
     94 H39        -1.0330   -0.1110    1.5330 hc        1 MOL     -0.003256
     95 H40        -0.1980    1.2540    0.8750 hc        1 MOL     -0.003256
     96 H41        -3.9850    0.7120    1.3990 hc        1 MOL      0.076827
     97 H42        -3.1200   -0.0880    2.7390 hc        1 MOL      0.076827
     98 H43        -4.0050    1.4500    3.0490 hc        1 MOL      0.076827
     99 H44        -1.7570    1.1970   -1.1700 hc        1 MOL      0.144189
    100 H45        -0.6260    0.1240   -0.9000 hc        1 MOL      0.144189
    101 H46        -2.2700   -0.4510   -0.4520 hc        1 MOL      0.144189
    102 N10        -4.7690    4.0170    2.0070 n         1 MOL     -0.753510
    103 C32        -5.7000    3.4370    1.0160 c3        1 MOL      0.559730
    104 C33        -6.5080    2.1760    1.3880 c         1 MOL      0.508299
    105 O16        -6.2700    1.6210    2.4620 o         1 MOL     -0.586167
    106 C34        -6.6690    4.6090    0.6550 c3        1 MOL     -0.455662
    107 C35        -7.5040    4.4640   -0.5450 c         1 MOL      0.771620
    108 O17        -7.3420    3.6370   -1.4770 o         1 MOL     -0.712239
    109 O18        -8.3820    5.3260   -0.6700 o         1 MOL     -0.712239
    110 H47        -5.2250    4.5870    2.7020 hn        1 MOL      0.358748
    111 H48        -5.2050    3.1510    0.0870 h1        1 MOL     -0.057364
    112 H49        -6.0320    5.4300    0.3290 hc        1 MOL      0.085068
    113 H50        -7.2620    4.9360    1.5150 hc        1 MOL      0.085068
    114 N11        -7.3720    1.6310    0.5020 n         1 MOL     -0.654230
    115 C36        -7.9510    0.2930    0.6890 c3        1 MOL      0.458243
    116 C37        -8.5470   -0.3850   -0.5910 c         1 MOL      0.314089
    117 O19        -9.0680    0.3480   -1.4590 o         1 MOL     -0.462225
    118 C38        -9.0350    0.3390    1.8300 c3        1 MOL     -0.299409
    119 C39        -9.8070   -0.9040    2.1950 ca        1 MOL      0.046632
    120 C40       -10.9510   -1.2540    1.4670 ca        1 MOL     -0.102292
    121 C41        -9.2950   -1.8020    3.0900 ca        1 MOL     -0.102292
    122 C42       -11.6560   -2.4770    1.7550 ca        1 MOL     -0.173997
    123 C43        -9.9650   -2.9820    3.4310 ca        1 MOL     -0.173997
    124 C44       -11.1710   -3.3050    2.7420 ca        1 MOL     -0.088636
    125 H51        -7.6070    2.2140   -0.2870 hn        1 MOL      0.337089
    126 H52        -7.0500   -0.2500    0.9690 h1        1 MOL     -0.077751
    127 H53        -9.6800    1.1790    1.5740 hc        1 MOL      0.101199
    128 H54        -8.4870    0.6070    2.7270 hc        1 MOL      0.101199
    129 H55       -11.2740   -0.6860    0.6080 ha        1 MOL      0.105234
    130 H56        -8.3580   -1.5900    3.5740 ha        1 MOL      0.105234
    131 H57       -12.5160   -2.8410    1.2040 ha        1 MOL      0.114988
    132 H58        -9.4940   -3.7160    4.0820 ha        1 MOL      0.114988
    133 H59       -11.6050   -4.2810    2.9400 ha        1 MOL      0.084748
    134 N12        -8.3300   -1.7760   -0.8180 n         1 MOL     -0.187387
    135 C45        -7.3530   -2.6760   -0.1310 c3        1 MOL      0.621794
    136 C46        -5.8570   -2.2820   -0.2980 c         1 MOL      0.256948
    137 O20        -5.5350   -1.1990   -0.7480 o         1 MOL     -0.452398
    138 C47        -7.6310   -4.0340   -0.7370 c3        1 MOL      0.051853
    139 C48        -9.0780   -3.9810   -1.1590 c3        1 MOL     -0.304579
    140 C49        -9.2200   -2.5650   -1.6550 c3        1 MOL      0.096103
    141 H60        -7.7120   -2.7510    0.8980 h1        1 MOL     -0.131591
    142 H61        -6.9520   -4.2140   -1.5680 hc        1 MOL     -0.004089
    143 H62        -7.6270   -4.7970    0.0490 hc        1 MOL     -0.004089
    144 H63        -9.1290   -4.6210   -2.0450 hc        1 MOL      0.077925
    145 H64        -9.8450   -4.2210   -0.4330 hc        1 MOL      0.077925
    146 H65        -9.0360   -2.4900   -2.7270 h1        1 MOL      0.018565
    147 H66       -10.2450   -2.3010   -1.3890 h1        1 MOL      0.018565
    148 N13        -4.9950   -3.2140    0.1050 n         1 MOL     -0.707089
    149 C50        -3.5240   -3.0040    0.2580 c3        1 MOL      0.707909
    150 C51        -2.6850   -3.6880    1.4030 c         1 MOL      0.173515
    151 O21        -1.5290   -4.1630    1.1020 o         1 MOL     -0.513148
    152 C52        -2.8880   -2.9940   -1.1100 c3        1 MOL     -0.357884
    153 C53        -2.7600   -4.4140   -1.7770 c3        1 MOL      0.046749
    154 C54        -4.1520   -4.9860   -2.1950 c         1 MOL      0.703911
    155 O22        -4.5740   -5.9680   -1.6050 o         1 MOL     -0.727247
    156 O23        -4.7250   -4.3690   -3.1680 o         1 MOL     -0.727247
    157 H67        -5.3460   -4.1090    0.4230 hn        1 MOL      0.286795
    158 H68        -3.5440   -1.9320    0.4440 h1        1 MOL      0.013447
    159 H69        -1.8600   -2.6630   -1.0010 hc        1 MOL      0.084234
    160 H70        -3.4050   -2.3020   -1.7810 hc        1 MOL      0.084234
    161 H71        -2.1410   -5.1170   -1.2310 hc        1 MOL     -0.050209
    162 H72        -2.2270   -4.2730   -2.7270 hc        1 MOL     -0.050209
    163 N14        -3.2140   -3.7750    2.5950 n         1 MOL     -0.244747
    164 C55        -4.3310   -3.1520    3.3110 c3        1 MOL     -0.079926
    165 H73        -4.3530   -2.0840    3.0910 h1        1 MOL      0.057376
    166 H74        -5.2680   -3.6070    2.9890 h1        1 MOL      0.057376
    167 H75        -4.2050   -3.3000    4.3830 h1        1 MOL      0.057376
    168 H76        -2.6140   -4.2530    3.2430 hn        1 MOL      0.255845
    169 Ca1         5.8560    1.4720   -0.6650 Ca        1 MOL      1.720311
    170 O24         3.6170    1.5980    1.0590 oh        1 MOL     -0.836382
    171 H77         3.2160    0.7390    1.1600 ho        1 MOL      0.413625
    172 H78         3.9020    1.8340    1.9510 ho        1 MOL      0.413625
    173 O25         4.9100    4.0400   -0.6600 oh        1 MOL     -0.836382
    174 H79         4.8860    4.7040   -1.3530 ho        1 MOL      0.413625
    175 H80         5.2210    4.5110    0.1160 ho        1 MOL      0.413625
    176 O26         7.8610    3.0170   -1.3880 oh        1 MOL     -0.836382
    177 H81         7.9560    3.9020   -1.7220 ho        1 MOL      0.413625
    178 H82         8.7100    2.8080   -0.9850 ho        1 MOL      0.413625
    179 O27         6.1010    1.7580   -3.3460 oh        1 MOL     -0.836382
    180 H83         6.0340    2.6800   -3.5950 ho        1 MOL      0.413625
    181 H84         5.3580    1.3340   -3.7840 ho        1 MOL      0.413625
@<TRIPOS>BOND
     1    1    2 1   
     2    1    4 1   
     3    1    5 1   
     4    1    6 1   
     5    2    3 2   
     6    2    7 1   
     7    7    8 1   
     8    7   15 1   
     9    8    9 1   
    10    8   11 1   
    11    8   16 1   
    12    9   10 2   
    13    9   19 1   
    14   11   12 1   
    15   11   17 1   
    16   11   18 1   
    17   12   13 1   
    18   12   14 1   
    19   19   20 1   
    20   19   24 1   
    21   20   21 1   
    22   20   23 1   
    23   20   25 1   
    24   21   22 2   
    25   21   29 1   
    26   23   26 1   
    27   23   27 1   
    28   23   28 1   
    29   29   30 1   
    30   29   37 1   
    31   30   31 1   
    32   30   33 1   
    33   30   38 1   
    34   31   32 2   
    35   31   41 1   
    36   33   34 1   
    37   33   39 1   
    38   33   40 1   
    39   34   35 1   
    40   34   36 1   
    41   41   42 1   
    42   41   45 1   
    43   42   43 1   
    44   42   46 1   
    45   42   47 1   
    46   43   44 2   
    47   43   48 1   
    48   48   49 1   
    49   48   56 1   
    50   49   50 1   
    51   49   52 1   
    52   49   57 1   
    53   50   51 2   
    54   50   62 1   
    55   52   53 1   
    56   52   58 1   
    57   52   59 1   
    58   53   54 1   
    59   53   55 2   
    60   54   60 1   
    61   54   61 1   
    62   62   63 1   
    63   62   66 1   
    64   63   64 1   
    65   63   67 1   
    66   63   68 1   
    67   64   65 2   
    68   64   69 1   
    69   69   70 1   
    70   69   76 1   
    71   70   71 1   
    72   70   73 1   
    73   70   77 1   
    74   71   72 2   
    75   71   83 1   
    76   73   74 1   
    77   73   75 1   
    78   73   78 1   
    79   74   80 1   
    80   74   81 1   
    81   74   82 1   
    82   75   79 1   
    83   83   84 1   
    84   83   91 1   
    85   84   85 1   
    86   84   87 1   
    87   84   92 1   
    88   85   86 2   
    89   85  102 1   
    90   87   88 1   
    91   87   89 1   
    92   87   93 1   
    93   88   90 1   
    94   88   94 1   
    95   88   95 1   
    96   89   96 1   
    97   89   97 1   
    98   89   98 1   
    99   90   99 1   
   100   90  100 1   
   101   90  101 1   
   102  102  103 1   
   103  102  110 1   
   104  103  104 1   
   105  103  106 1   
   106  103  111 1   
   107  104  105 2   
   108  104  114 1   
   109  106  107 1   
   110  106  112 1   
   111  106  113 1   
   112  107  108 1   
   113  107  109 1   
   114  114  115 1   
   115  114  125 1   
   116  115  116 1   
   117  115  118 1   
   118  115  126 1   
   119  116  117 2   
   120  116  134 1   
   121  118  119 1   
   122  118  127 1   
   123  118  128 1   
   124  119  120 ar  
   125  119  121 ar  
   126  120  122 ar  
   127  120  129 1   
   128  121  123 ar  
   129  121  130 1   
   130  122  124 ar  
   131  122  131 1   
   132  123  124 ar  
   133  123  132 1   
   134  124  133 1   
   135  134  135 1   
   136  134  140 1   
   137  135  136 1   
   138  135  138 1   
   139  135  141 1   
   140  136  137 2   
   141  136  148 1   
   142  138  139 1   
   143  138  142 1   
   144  138  143 1   
   145  139  140 1   
   146  139  144 1   
   147  139  145 1   
   148  140  146 1   
   149  140  147 1   
   150  148  149 1   
   151  148  157 1   
   152  149  150 1   
   153  149  152 1   
   154  149  158 1   
   155  150  151 2   
   156  150  163 1   
   157  152  153 1   
   158  152  159 1   
   159  152  160 1   
   160  153  154 1   
   161  153  161 1   
   162  153  162 1   
   163  154  155 1   
   164  154  156 1   
   165  163  164 1   
   166  163  168 1   
   167  164  165 1   
   168  164  166 1   
   169  164  167 1   
   170  170  171 1   
   171  170  172 1   
   172  173  174 1   
   173  173  175 1   
   174  176  177 1   
   175  176  178 1   
   176  179  180 1   
   177  179  181 1   
@<TRIPOS>SUBSTRUCTURE
     1 MOL         1 TEMP              0 ****  ****    0 ROOT
