@<TRIPOS>MOLECULE
MOL
  192   187     1     0     0
SMALL
resp


@<TRIPOS>ATOM
      1 C1         11.8100    6.5540   -1.8280 c3        1 MOL     -0.452732
      2 C2         11.9220    5.1480   -1.1250 c         1 MOL      0.676961
      3 O1         13.0520    4.6400   -1.0980 o         1 MOL     -0.579287
      4 H1         12.0230    7.3400   -1.1040 hc        1 MOL      0.120001
      5 H2         12.5280    6.6110   -2.6460 hc        1 MOL      0.120001
      6 H3         10.8010    6.6850   -2.2200 hc        1 MOL      0.120001
      7 N1         10.8500    4.5620   -0.6430 n         1 MOL     -0.277449
      8 C3         10.8490    3.2870    0.1710 c3        1 MOL     -0.310054
      9 C4          9.6610    2.4520   -0.2540 c         1 MOL      0.564854
     10 O2          8.5230    2.9440   -0.6350 o         1 MOL     -0.647846
     11 C5         10.8610    3.4570    1.7060 c3        1 MOL      0.045898
     12 C6          9.7440    4.3630    2.2690 c         1 MOL      0.650304
     13 O3          9.6770    4.4790    3.4690 o         1 MOL     -0.665913
     14 O4          9.0010    4.9820    1.4700 o         1 MOL     -0.665913
     15 H4         10.0050    5.0990   -0.7080 hn        1 MOL      0.109631
     16 H5         11.6700    2.7010   -0.2500 h1        1 MOL      0.125297
     17 H6         11.8310    3.8600    1.9890 hc        1 MOL      0.052014
     18 H7         10.8480    2.4630    2.1490 hc        1 MOL      0.052014
     19 N2          9.7030    1.1030   -0.2050 n         1 MOL     -0.332439
     20 C7          8.6150    0.1930   -0.6260 c3        1 MOL      0.006704
     21 C8          7.5580   -0.0280    0.4520 c         1 MOL      0.529547
     22 O5          7.9220   -0.4760    1.5390 o         1 MOL     -0.522132
     23 C9          9.2640   -1.1100   -1.1290 c3        1 MOL      0.022360
     24 C10         8.3600   -2.0670   -1.9490 c3        1 MOL     -0.175334
     25 C11         9.0770   -3.3620   -2.3100 c3        1 MOL     -0.169657
     26 C12         8.1730   -4.3480   -3.0700 c3        1 MOL      0.130473
     27 N3          8.8630   -5.6300   -3.1710 n4        1 MOL     -0.234396
     28 H8         10.5420    0.6300    0.1010 hn        1 MOL      0.283355
     29 H9          8.0940    0.5850   -1.4930 h1        1 MOL      0.031892
     30 H10         9.7400   -1.5960   -0.2800 hc        1 MOL      0.026153
     31 H11        10.1020   -0.7640   -1.7370 hc        1 MOL      0.026153
     32 H12         8.0200   -1.5220   -2.8210 hc        1 MOL      0.100632
     33 H13         7.5450   -2.3710   -1.2900 hc        1 MOL      0.100632
     34 H14         9.3400   -3.7660   -1.3270 hc        1 MOL      0.080197
     35 H15        10.0120   -3.1330   -2.8260 hc        1 MOL      0.080197
     36 H16         8.0710   -3.9370   -4.0730 hx        1 MOL      0.061033
     37 H17         7.1960   -4.3760   -2.5980 hx        1 MOL      0.061033
     38 H18         9.1550   -5.9650   -2.2670 hn        1 MOL      0.243717
     39 H19         8.2080   -6.3080   -3.5200 hn        1 MOL      0.243717
     40 H20         9.7070   -5.6450   -3.7250 hn        1 MOL      0.243717
     41 N4          6.2620    0.2590    0.2260 n         1 MOL     -0.461263
     42 C13         5.3040   -0.1940    1.2050 c3        1 MOL      0.110606
     43 C14         3.8810   -0.1520    0.5790 c         1 MOL      0.292358
     44 O6          3.6300    0.4760   -0.4410 o         1 MOL     -0.394608
     45 C15         5.2970    0.7260    2.4530 c3        1 MOL      0.077985
     46 C16         5.5440    2.1790    2.1420 c         1 MOL      0.528251
     47 O7          4.7270    2.9030    1.5670 o         1 MOL     -0.675072
     48 O8          6.6670    2.6180    2.4310 o         1 MOL     -0.675072
     49 H21         5.9760    0.6840   -0.6390 hn        1 MOL      0.230536
     50 H22         5.5250   -1.2020    1.5530 h1        1 MOL      0.074108
     51 H23         5.9980    0.4290    3.2280 hc        1 MOL      0.021897
     52 H24         4.3660    0.5610    2.9930 hc        1 MOL      0.021897
     53 N5          2.9370   -1.0490    1.0840 n         1 MOL     -0.384580
     54 C17         2.9370   -1.7160    2.3540 c3        1 MOL      0.083734
     55 C18         3.1640   -3.2110    2.2250 c         1 MOL      0.552729
     56 O9          3.9270   -3.7060    1.3840 o         1 MOL     -0.564541
     57 H25         2.0750   -1.1140    0.5670 hn        1 MOL      0.298750
     58 H26         2.0140   -1.6460    2.9160 h1        1 MOL      0.011754
     59 H27         3.7210   -1.4540    3.0700 h1        1 MOL      0.011754
     60 N6          2.5410   -3.9650    3.1140 n         1 MOL     -0.364659
     61 C19         2.5840   -5.4310    3.2270 c3        1 MOL     -0.011829
     62 C20         1.8000   -6.1800    2.1050 c         1 MOL      0.354289
     63 O10         2.2140   -7.2910    1.6730 o         1 MOL     -0.475113
     64 C21         2.0200   -5.8040    4.6620 c3        1 MOL     -0.049076
     65 C22         2.3650   -7.2190    5.1170 c         1 MOL      0.651502
     66 O11         3.4100   -7.4310    5.8140 o         1 MOL     -0.632564
     67 O12         1.5070   -8.1160    4.8950 o         1 MOL     -0.632564
     68 H28         1.8610   -3.4750    3.6900 hn        1 MOL      0.224111
     69 H29         3.6250   -5.7510    3.2830 h1        1 MOL      0.110582
     70 H30         0.9430   -5.6300    4.6900 hc        1 MOL     -0.003275
     71 H31         2.5280   -5.1550    5.3680 hc        1 MOL     -0.003275
     72 N7          0.6670   -5.5780    1.7140 n         1 MOL     -0.159013
     73 C23        -0.3330   -6.0420    0.7060 c3        1 MOL     -0.029896
     74 C24        -0.4470   -5.2620   -0.6410 c         1 MOL      0.408106
     75 O13        -1.1160   -5.7820   -1.5700 o         1 MOL     -0.544834
     76 H32         0.4110   -4.7410    2.2270 hn        1 MOL      0.192250
     77 H33        -1.3480   -6.1120    1.0930 h1        1 MOL      0.083466
     78 H34        -0.1110   -7.0540    0.3660 h1        1 MOL      0.083466
     79 N8          0.3530   -4.2500   -0.8060 n         1 MOL     -0.172119
     80 C25         0.4060   -3.4890   -2.0700 c3        1 MOL     -0.032369
     81 C26         0.0580   -2.0290   -1.8070 c         1 MOL      0.377217
     82 O14         0.4010   -1.5040   -0.7100 o         1 MOL     -0.502355
     83 C27         1.8730   -3.5350   -2.5760 c3        1 MOL      0.504455
     84 C28         2.4650   -4.9050   -2.7610 c3        1 MOL     -0.539266
     85 O15         2.0540   -2.8500   -3.7840 oh        1 MOL     -0.662346
     86 H35         1.0420   -4.0580   -0.0880 hn        1 MOL      0.109508
     87 H36        -0.2420   -3.9400   -2.8300 h1        1 MOL      0.064978
     88 H37         2.5370   -3.0900   -1.8200 h1        1 MOL      0.007078
     89 H38         1.8560   -3.4690   -4.5060 ho        1 MOL      0.376744
     90 H39         2.5220   -5.3570   -1.7720 hc        1 MOL      0.137508
     91 H40         1.6670   -5.4430   -3.2820 hc        1 MOL      0.137508
     92 H41         3.4350   -4.8630   -3.2500 hc        1 MOL      0.137508
     93 N9         -0.5050   -1.2930   -2.7950 n         1 MOL     -0.180279
     94 C29        -0.9970    0.0400   -2.4990 c3        1 MOL     -0.074450
     95 C30        -2.3740    0.0210   -1.8110 c         1 MOL      0.647614
     96 O16        -2.5910    0.8800   -0.9270 o         1 MOL     -0.553016
     97 C31        -1.1270    0.7920   -3.8640 c3        1 MOL      0.062342
     98 C32         0.1110    0.5750   -4.7730 c3        1 MOL      0.061218
     99 C33        -1.4300    2.2880   -3.6710 c3        1 MOL     -0.278085
    100 C34         1.5010    0.8700   -4.3160 c3        1 MOL     -0.332120
    101 H42        -0.8870   -1.9090   -3.4980 hn        1 MOL      0.197006
    102 H43        -0.3730    0.4810   -1.7200 h1        1 MOL      0.113977
    103 H44        -2.0010    0.4730   -4.4440 hc        1 MOL      0.004848
    104 H45        -0.0750    1.1140   -5.6980 hc        1 MOL      0.002910
    105 H46        -0.0180   -0.4110   -5.2240 hc        1 MOL      0.002910
    106 H47        -1.2580    2.8130   -4.6110 hc        1 MOL      0.080818
    107 H48        -2.4380    2.3990   -3.2640 hc        1 MOL      0.080818
    108 H49        -0.7540    2.7350   -2.9420 hc        1 MOL      0.080818
    109 H50         2.2070    0.9050   -5.1390 hc        1 MOL      0.087161
    110 H51         1.5150    1.8300   -3.8110 hc        1 MOL      0.087161
    111 H52         1.6470    0.1300   -3.5330 hc        1 MOL      0.087161
    112 N10        -3.2750   -0.9310   -2.1210 n         1 MOL     -0.550219
    113 C35        -4.4140   -1.2940   -1.1970 c3        1 MOL     -0.038186
    114 C36        -5.6840   -1.9140   -1.8550 c         1 MOL      0.737911
    115 O17        -5.5020   -2.4630   -2.9240 o         1 MOL     -0.558794
    116 C37        -3.8950   -2.2220   -0.0520 c3        1 MOL      0.292757
    117 C38        -3.3610   -3.6210   -0.3410 c3        1 MOL     -0.210868
    118 O18        -2.8490   -1.4990    0.5090 oh        1 MOL     -0.597275
    119 H53        -3.0010   -1.5770   -2.8410 hn        1 MOL      0.294776
    120 H54        -4.8130   -0.4240   -0.6720 h1        1 MOL      0.078203
    121 H55        -4.6250   -2.2740    0.7520 h1        1 MOL      0.009633
    122 H56        -3.0560   -0.5720    0.4100 ho        1 MOL      0.382976
    123 H57        -2.9260   -4.0610    0.5510 hc        1 MOL      0.058946
    124 H58        -4.2500   -4.2160   -0.5180 hc        1 MOL      0.058946
    125 H59        -2.7360   -3.5100   -1.2350 hc        1 MOL      0.058946
    126 N11        -6.8750   -1.7960   -1.3160 n         1 MOL     -0.664305
    127 C39        -8.2080   -2.1580   -1.8930 c3        1 MOL      0.076754
    128 C40        -9.1890   -0.9960   -1.7930 c         1 MOL      0.672984
    129 O19        -9.8240   -0.7980   -2.7990 o         1 MOL     -0.571098
    130 C41        -8.8640   -3.3910   -1.3090 c3        1 MOL      0.250040
    131 C42       -10.3190   -3.6620   -1.6180 c3        1 MOL     -0.537049
    132 O20        -8.8860   -3.3400    0.1180 oh        1 MOL     -0.652485
    133 H60        -6.8690   -1.4370   -0.3780 hn        1 MOL      0.284525
    134 H61        -8.0060   -2.3660   -2.9440 h1        1 MOL      0.096523
    135 H62        -8.3160   -4.3070   -1.5090 h1        1 MOL      0.070242
    136 H63        -8.9920   -4.2300    0.4570 ho        1 MOL      0.419019
    137 H64       -10.5120   -4.6880   -1.2810 hc        1 MOL      0.145768
    138 H65       -10.9890   -2.8890   -1.2600 hc        1 MOL      0.145768
    139 H66       -10.4480   -3.6920   -2.6990 hc        1 MOL      0.145768
    140 N12        -9.3630   -0.2930   -0.6910 n         1 MOL     -0.499149
    141 C43       -10.1440    0.9910   -0.5740 c3        1 MOL     -0.032754
    142 C44        -9.6080    1.9760    0.3930 c         1 MOL      0.553385
    143 O21        -9.1220    1.6010    1.4820 o         1 MOL     -0.519551
    144 C45       -11.6540    0.6830   -0.3890 c3        1 MOL     -0.414795
    145 C46       -11.9840    0.2670    1.0120 c3        1 MOL      0.102549
    146 C47       -13.4570   -0.1950    1.1180 c3        1 MOL      0.010179
    147 C48       -13.6930   -0.9890    2.4530 c3        1 MOL      0.065144
    148 N13       -15.0330   -1.6760    2.5080 n4        1 MOL     -0.301983
    149 H67        -8.9080   -0.5920    0.1620 hn        1 MOL      0.324438
    150 H68       -10.1110    1.5020   -1.5390 h1        1 MOL      0.128484
    151 H69       -11.9320   -0.1590   -1.0180 hc        1 MOL      0.148540
    152 H70       -12.2160    1.5440   -0.7690 hc        1 MOL      0.148540
    153 H71       -11.8580    1.0610    1.7510 hc        1 MOL      0.044989
    154 H72       -11.3460   -0.5200    1.4100 hc        1 MOL      0.044989
    155 H73       -13.6520   -0.8960    0.3060 hc        1 MOL      0.016893
    156 H74       -14.1430    0.6510    1.1600 hc        1 MOL      0.016893
    157 H75       -13.5090   -0.2230    3.2090 hx        1 MOL      0.052938
    158 H76       -12.8770   -1.7150    2.5000 hx        1 MOL      0.052938
    159 H77       -14.8950   -2.3140    3.2720 hn        1 MOL      0.248570
    160 H78       -15.7820   -1.0650    2.7910 hn        1 MOL      0.248570
    161 H79       -15.1890   -2.1690    1.6370 hn        1 MOL      0.248570
    162 N14        -9.7470    3.2720    0.1050 n         1 MOL     -0.432251
    163 C49        -9.4670    4.3100    1.1350 c3        1 MOL      0.055018
    164 C50        -7.9350    4.4550    1.4060 c         1 MOL      0.424527
    165 O22        -7.5800    4.2950    2.5860 o         1 MOL     -0.545677
    166 C51       -10.1530    5.5950    0.6450 c3        1 MOL      0.174652
    167 C52        -9.9150    6.7830    1.5800 c3        1 MOL     -0.168530
    168 C53       -10.8260    7.9220    1.1780 c         1 MOL      0.606785
    169 O23       -11.6960    8.4920    1.9260 o         1 MOL     -0.612505
    170 O24       -11.0240    8.1030   -0.0390 o         1 MOL     -0.612505
    171 H80       -10.2740    3.5510   -0.7040 hn        1 MOL      0.254010
    172 H81       -10.0480    4.1700    2.0430 h1        1 MOL      0.074734
    173 H82       -11.2210    5.4460    0.5250 hc        1 MOL     -0.018228
    174 H83        -9.6910    5.8420   -0.3060 hc        1 MOL     -0.018228
    175 H84        -8.8550    7.0120    1.5400 hc        1 MOL      0.028669
    176 H85       -10.1600    6.4920    2.5940 hc        1 MOL      0.028669
    177 N15        -6.9840    4.6940    0.5150 n         1 MOL     -0.292549
    178 C54        -7.1370    5.0070   -0.9160 c3        1 MOL     -0.094599
    179 H86        -7.4730    4.1170   -1.4490 h1        1 MOL      0.064802
    180 H87        -7.8730    5.8020   -1.0380 h1        1 MOL      0.064802
    181 H88        -6.1790    5.3320   -1.3210 h1        1 MOL      0.064802
    182 H89        -6.0620    4.5360    0.8980 hn        1 MOL      0.276337
    183 Ca1         6.6440    4.4710    0.5660 Ca        1 MOL      1.783262
    184 O25         4.1750    5.3120   -0.2790 oh        1 MOL     -0.911591
    185 H90         3.6920    6.1380   -0.3500 ho        1 MOL      0.446516
    186 H91         3.5240    4.6390   -0.4540 ho        1 MOL      0.446516
    187 O26         5.8620    2.9100   -1.5200 oh        1 MOL     -0.911591
    188 H92         6.7290    2.8970   -1.9220 ho        1 MOL      0.446516
    189 H93         5.3200    2.3720   -2.1000 ho        1 MOL      0.446516
    190 O27         5.9860    5.8290    2.6290 oh        1 MOL     -0.911591
    191 H94         5.0730    5.8580    2.9130 ho        1 MOL      0.446516
    192 H95         6.4830    6.1490    3.3790 ho        1 MOL      0.446516
@<TRIPOS>BOND
     1    1    2 1   
     2    1    4 1   
     3    1    5 1   
     4    1    6 1   
     5    2    3 2   
     6    2    7 1   
     7    7    8 1   
     8    7   15 1   
     9    8    9 1   
    10    8   11 1   
    11    8   16 1   
    12    9   10 2   
    13    9   19 1   
    14   11   12 1   
    15   11   17 1   
    16   11   18 1   
    17   12   13 1   
    18   12   14 1   
    19   19   20 1   
    20   19   28 1   
    21   20   21 1   
    22   20   23 1   
    23   20   29 1   
    24   21   22 2   
    25   21   41 1   
    26   23   24 1   
    27   23   30 1   
    28   23   31 1   
    29   24   25 1   
    30   24   32 1   
    31   24   33 1   
    32   25   26 1   
    33   25   34 1   
    34   25   35 1   
    35   26   27 1   
    36   26   36 1   
    37   26   37 1   
    38   27   38 1   
    39   27   39 1   
    40   27   40 1   
    41   41   42 1   
    42   41   49 1   
    43   42   43 1   
    44   42   45 1   
    45   42   50 1   
    46   43   44 2   
    47   43   53 1   
    48   45   46 1   
    49   45   51 1   
    50   45   52 1   
    51   46   47 1   
    52   46   48 1   
    53   53   54 1   
    54   53   57 1   
    55   54   55 1   
    56   54   58 1   
    57   54   59 1   
    58   55   56 2   
    59   55   60 1   
    60   60   61 1   
    61   60   68 1   
    62   61   62 1   
    63   61   64 1   
    64   61   69 1   
    65   62   63 2   
    66   62   72 1   
    67   64   65 1   
    68   64   70 1   
    69   64   71 1   
    70   65   66 1   
    71   65   67 1   
    72   72   73 1   
    73   72   76 1   
    74   73   74 1   
    75   73   77 1   
    76   73   78 1   
    77   74   75 2   
    78   74   79 1   
    79   79   80 1   
    80   79   86 1   
    81   80   81 1   
    82   80   83 1   
    83   80   87 1   
    84   81   82 2   
    85   81   93 1   
    86   83   84 1   
    87   83   85 1   
    88   83   88 1   
    89   84   90 1   
    90   84   91 1   
    91   84   92 1   
    92   85   89 1   
    93   93   94 1   
    94   93  101 1   
    95   94   95 1   
    96   94   97 1   
    97   94  102 1   
    98   95   96 2   
    99   95  112 1   
   100   97   98 1   
   101   97   99 1   
   102   97  103 1   
   103   98  100 1   
   104   98  104 1   
   105   98  105 1   
   106   99  106 1   
   107   99  107 1   
   108   99  108 1   
   109  100  109 1   
   110  100  110 1   
   111  100  111 1   
   112  112  113 1   
   113  112  119 1   
   114  113  114 1   
   115  113  116 1   
   116  113  120 1   
   117  114  115 2   
   118  114  126 1   
   119  116  117 1   
   120  116  118 1   
   121  116  121 1   
   122  117  123 1   
   123  117  124 1   
   124  117  125 1   
   125  118  122 1   
   126  126  127 1   
   127  126  133 1   
   128  127  128 1   
   129  127  130 1   
   130  127  134 1   
   131  128  129 2   
   132  128  140 1   
   133  130  131 1   
   134  130  132 1   
   135  130  135 1   
   136  131  137 1   
   137  131  138 1   
   138  131  139 1   
   139  132  136 1   
   140  140  141 1   
   141  140  149 1   
   142  141  142 1   
   143  141  144 1   
   144  141  150 1   
   145  142  143 2   
   146  142  162 1   
   147  144  145 1   
   148  144  151 1   
   149  144  152 1   
   150  145  146 1   
   151  145  153 1   
   152  145  154 1   
   153  146  147 1   
   154  146  155 1   
   155  146  156 1   
   156  147  148 1   
   157  147  157 1   
   158  147  158 1   
   159  148  159 1   
   160  148  160 1   
   161  148  161 1   
   162  162  163 1   
   163  162  171 1   
   164  163  164 1   
   165  163  166 1   
   166  163  172 1   
   167  164  165 2   
   168  164  177 1   
   169  166  167 1   
   170  166  173 1   
   171  166  174 1   
   172  167  168 1   
   173  167  175 1   
   174  167  176 1   
   175  168  169 1   
   176  168  170 1   
   177  177  178 1   
   178  177  182 1   
   179  178  179 1   
   180  178  180 1   
   181  178  181 1   
   182  184  185 1   
   183  184  186 1   
   184  187  188 1   
   185  187  189 1   
   186  190  191 1   
   187  190  192 1   
@<TRIPOS>SUBSTRUCTURE
     1 MOL         1 TEMP              0 ****  ****    0 ROOT
