@<TRIPOS>MOLECULE
MOL
  198   191     1     0     0
SMALL
resp


@<TRIPOS>ATOM
      1 C1         -6.6470   -3.8690    3.8530 c3        1 MOL     -0.348436
      2 C2         -5.8880   -2.8750    2.8670 c         1 MOL      0.690464
      3 O1         -5.5740   -3.3470    1.7230 o         1 MOL     -0.576247
      4 H1         -7.5120   -3.3630    4.2830 hc        1 MOL      0.097694
      5 H2         -6.9790   -4.7470    3.3000 hc        1 MOL      0.097694
      6 H3         -5.9710   -4.1760    4.6510 hc        1 MOL      0.097694
      7 N1         -5.5740   -1.6020    3.2100 n         1 MOL     -0.553739
      8 C3         -5.0510   -0.5020    2.3960 c3        1 MOL      0.458290
      9 C4         -3.5390   -0.5530    2.0330 c         1 MOL     -0.023649
     10 O2         -3.0050    0.1770    1.1420 o         1 MOL     -0.236578
     11 C5         -5.5180    0.8540    2.9620 c3        1 MOL     -0.119202
     12 C6         -7.0530    1.1490    3.0600 c         1 MOL      0.576552
     13 O3         -7.5730    0.7870    4.1600 o         1 MOL     -0.662126
     14 O4         -7.6560    1.7000    2.0600 o         1 MOL     -0.662126
     15 H4         -5.8280   -1.4240    4.1700 hn        1 MOL      0.271917
     16 H5         -5.4290   -0.5140    1.3770 h1        1 MOL     -0.028402
     17 H6         -4.9770    1.7070    2.5560 hc        1 MOL      0.011310
     18 H7         -5.1660    0.8230    3.9900 hc        1 MOL      0.011310
     19 N2         -2.7880   -1.4490    2.7090 n         1 MOL     -0.345977
     20 C7         -1.2880   -1.5540    2.7910 c3        1 MOL      0.336248
     21 C8         -0.7130   -2.6560    1.8840 c         1 MOL      0.255200
     22 O5         -1.1070   -3.7970    2.0980 o         1 MOL     -0.474895
     23 C9         -0.7090   -1.6610    4.2310 c3        1 MOL     -0.183941
     24 C10        -1.1660   -0.5530    5.1840 c3        1 MOL      0.179982
     25 C11        -0.5940   -0.6000    6.6210 c3        1 MOL     -0.090896
     26 C12        -0.6920   -1.9880    7.3920 c3        1 MOL      0.040230
     27 N3         -0.3870   -1.9710    8.8460 n4        1 MOL     -0.237421
     28 H8         -3.4040   -2.0790    3.2030 hn        1 MOL      0.230003
     29 H9         -0.9250   -0.6080    2.3870 h1        1 MOL      0.052384
     30 H10         0.3780   -1.5460    4.1950 hc        1 MOL      0.053155
     31 H11        -1.0920   -2.5560    4.7130 hc        1 MOL      0.053155
     32 H12        -2.2480   -0.5930    5.3380 hc        1 MOL     -0.031804
     33 H13        -0.9120    0.4130    4.7460 hc        1 MOL     -0.031804
     34 H14        -1.1190    0.1400    7.2330 hc        1 MOL      0.049759
     35 H15         0.4390   -0.2660    6.6110 hc        1 MOL      0.049759
     36 H16        -0.0980   -2.8040    6.9860 hx        1 MOL      0.067598
     37 H17        -1.7270   -2.2940    7.2440 hx        1 MOL      0.067598
     38 H18        -0.3070   -2.8540    9.3230 hn        1 MOL      0.269459
     39 H19         0.5120   -1.5300    8.9840 hn        1 MOL      0.269459
     40 H20        -0.9760   -1.4170    9.4430 hn        1 MOL      0.269459
     41 N4          0.2230   -2.3730    0.9180 n         1 MOL     -0.057676
     42 C13         0.9400   -1.1070    0.5980 c3        1 MOL     -0.741126
     43 C14         1.5360   -0.2610    1.7480 c         1 MOL      0.621801
     44 O6          0.9670    0.7800    2.1490 o         1 MOL     -0.544750
     45 C15         0.1560   -0.3200   -0.4210 c3        1 MOL      0.245687
     46 C16        -0.0010   -0.9560   -1.8260 c         1 MOL      0.056219
     47 O7          0.7050   -1.9360   -2.0820 o         1 MOL     -0.576424
     48 O8         -0.6660   -0.3490   -2.7210 o         1 MOL     -0.576424
     49 H21         0.2310   -3.0690    0.1850 hn        1 MOL      0.151989
     50 H22         1.8170   -1.4330    0.0350 h1        1 MOL      0.167956
     51 H23         0.7180    0.6080   -0.5240 hc        1 MOL      0.145032
     52 H24        -0.8500   -0.0250   -0.1410 hc        1 MOL      0.145032
     53 N5          2.7130   -0.5370    2.3010 n         1 MOL     -0.370663
     54 C17         3.5550   -1.7230    2.0480 c3        1 MOL      0.131692
     55 C18         4.7650   -1.7480    2.8940 c         1 MOL      0.436790
     56 O9          5.1240   -0.9130    3.6970 o         1 MOL     -0.495396
     57 H25         3.1160    0.1430    2.9270 hn        1 MOL      0.262516
     58 H26         3.8570   -1.6190    1.0090 h1        1 MOL      0.030681
     59 H27         2.9720   -2.6290    2.1930 h1        1 MOL      0.030681
     60 N6          5.5530   -2.7620    2.6200 n         1 MOL     -0.419691
     61 C19         5.6180   -3.7280    1.5320 c3        1 MOL      0.077459
     62 C20         6.5090   -3.2440    0.3790 c         1 MOL      0.535299
     63 O10         7.5690   -2.5950    0.5760 o         1 MOL     -0.430419
     64 C21         6.1300   -5.0620    2.0730 c3        1 MOL     -0.186155
     65 C22         7.2840   -5.1040    3.0230 c         1 MOL      0.703985
     66 O11         7.0930   -4.6670    4.1940 o         1 MOL     -0.662526
     67 O12         8.3940   -5.4750    2.6070 o         1 MOL     -0.662526
     68 H28         6.3770   -2.8340    3.1930 hn        1 MOL      0.301567
     69 H29         4.6270   -4.0000    1.1420 h1        1 MOL      0.016958
     70 H30         6.4810   -5.6460    1.2110 hc        1 MOL      0.017343
     71 H31         5.2860   -5.5480    2.5610 hc        1 MOL      0.017343
     72 N7          6.1800   -3.4550   -0.8790 n         1 MOL     -0.400178
     73 C23         6.7450   -2.6580   -1.9610 c3        1 MOL     -0.127500
     74 C24         6.5610   -1.1680   -1.8400 c         1 MOL      0.351599
     75 O13         7.4970   -0.3890   -1.7660 o         1 MOL     -0.454796
     76 H32         5.3700   -4.0520   -0.9540 hn        1 MOL      0.218392
     77 H33         6.2380   -3.0490   -2.8430 h1        1 MOL      0.094676
     78 H34         7.8180   -2.7990   -2.1110 h1        1 MOL      0.094676
     79 N8          5.3090   -0.7100   -1.8680 n         1 MOL     -0.205374
     80 C25         4.9700    0.7060   -1.9240 c3        1 MOL      0.036724
     81 C26         5.2900    1.6010   -0.6830 c         1 MOL      0.413981
     82 O14         5.4200    1.1270    0.4470 o         1 MOL     -0.376170
     83 C27         3.4210    0.7990   -2.2190 c3        1 MOL      0.414075
     84 C28         3.0220    0.1860   -3.5300 c3        1 MOL     -0.240220
     85 O15         2.9430    2.1380   -2.1840 oh        1 MOL     -0.693407
     86 H35         4.6290   -1.4490   -1.9290 hn        1 MOL      0.191930
     87 H36         5.5340    1.0540   -2.7870 h1        1 MOL      0.045491
     88 H37         2.9490    0.2420   -1.4120 h1        1 MOL     -0.002138
     89 H38         1.9920    2.2170   -2.0420 ho        1 MOL      0.454348
     90 H39         3.2720   -0.8710   -3.6950 hc        1 MOL      0.034522
     91 H40         1.9750    0.3820   -3.7680 hc        1 MOL      0.034522
     92 H41         3.5970    0.7680   -4.2420 hc        1 MOL      0.034522
     93 N9          5.5600    2.9380   -0.8990 n         1 MOL     -0.462493
     94 C29         5.6930    3.9660    0.1380 c3        1 MOL     -0.112280
     95 C30         4.4380    4.7260    0.4530 c         1 MOL      0.406288
     96 O16         4.4150    5.6150    1.3780 o         1 MOL     -0.555472
     97 C31         6.9780    4.8650   -0.0460 c3        1 MOL      0.064143
     98 C32         6.9410    5.7180   -1.3220 c3        1 MOL      0.117234
     99 C33         8.2160    3.9550   -0.0150 c3        1 MOL     -0.239938
    100 C34         7.8370    6.9820   -1.3720 c3        1 MOL     -0.198891
    101 H42         5.6510    3.2860   -1.8410 hn        1 MOL      0.329181
    102 H43         5.7720    3.4100    1.0770 h1        1 MOL      0.149375
    103 H44         7.1130    5.5580    0.7920 hc        1 MOL      0.050369
    104 H45         5.9000    5.9990   -1.4500 hc        1 MOL     -0.014928
    105 H46         7.0090    5.0610   -2.1970 hc        1 MOL     -0.014928
    106 H47         9.0510    4.4540   -0.4910 hc        1 MOL      0.068831
    107 H48         8.4990    3.7340    1.0140 hc        1 MOL      0.068831
    108 H49         7.9930    2.9630   -0.4200 hc        1 MOL      0.068831
    109 H50         8.8740    6.6500   -1.2420 hc        1 MOL      0.046458
    110 H51         7.7810    7.4490   -2.3480 hc        1 MOL      0.046458
    111 H52         7.7130    7.6870   -0.5540 hc        1 MOL      0.046458
    112 N10         3.3550    4.4300   -0.2950 n         1 MOL     -0.036570
    113 C35         2.1260    5.2040   -0.1820 c3        1 MOL     -0.352663
    114 C36         0.8900    4.2530   -0.2440 c         1 MOL      0.621662
    115 O17         0.8180    3.3610   -1.1380 o         1 MOL     -0.510185
    116 C37         2.0270    6.2180   -1.3310 c3        1 MOL      0.423821
    117 C38         1.8950    5.7580   -2.7860 c3        1 MOL     -0.386998
    118 O18         3.2720    6.8940   -1.4120 oh        1 MOL     -0.621710
    119 H53         3.3810    3.7120   -1.0100 hn        1 MOL      0.114523
    120 H54         2.1940    5.7640    0.7590 h1        1 MOL      0.151667
    121 H55         1.3150    7.0140   -1.1310 h1        1 MOL     -0.003844
    122 H56         3.4790    7.3990   -0.6180 ho        1 MOL      0.382706
    123 H57         2.5500    4.9110   -2.9910 hc        1 MOL      0.118784
    124 H58         0.9010    5.3420   -2.9520 hc        1 MOL      0.118784
    125 H59         2.0380    6.5680   -3.5090 hc        1 MOL      0.118784
    126 N11        -0.0770    4.3700    0.6730 n         1 MOL     -0.579423
    127 C39        -1.1770    3.3090    0.7710 c3        1 MOL      0.231974
    128 C40        -2.2580    3.6040   -0.2750 c         1 MOL      0.551286
    129 O19        -2.3510    4.7100   -0.7650 o         1 MOL     -0.567566
    130 C41        -1.7700    3.0270    2.1360 c3        1 MOL      0.354841
    131 C42        -2.6250    4.2000    2.6790 c3        1 MOL     -0.235835
    132 O20        -0.7800    2.7540    3.0630 oh        1 MOL     -0.617327
    133 H60        -0.0650    5.1110    1.3600 hn        1 MOL      0.326031
    134 H61        -0.7300    2.3600    0.4440 h1        1 MOL     -0.119811
    135 H62        -2.4720    2.1870    2.1460 h1        1 MOL     -0.016477
    136 H63        -0.3760    1.9540    2.7140 ho        1 MOL      0.397863
    137 H64        -1.9980    5.0770    2.8640 hc        1 MOL      0.059558
    138 H65        -3.3920    4.4880    1.9570 hc        1 MOL      0.059558
    139 H66        -3.1020    4.0160    3.6430 hc        1 MOL      0.059558
    140 N12        -3.1380    2.6320   -0.4950 n         1 MOL     -0.398669
    141 C43        -4.3830    2.7650   -1.3160 c3        1 MOL      0.046625
    142 C44        -4.7830    1.4500   -2.0420 c         1 MOL      0.546412
    143 O21        -5.1590    1.5420   -3.1970 o         1 MOL     -0.603894
    144 C45        -5.4950    3.3440   -0.4610 c3        1 MOL     -0.115989
    145 C46        -6.6880    3.5330   -1.3670 c3        1 MOL      0.071633
    146 C47        -7.6410    4.4050   -0.6340 c3        1 MOL      0.016723
    147 C48        -9.0630    4.4980   -1.3160 c3        1 MOL     -0.045306
    148 N13        -9.7870    3.2670   -1.1470 n4        1 MOL     -0.534605
    149 H67        -3.0660    1.8580    0.1520 hn        1 MOL      0.138975
    150 H68        -4.1750    3.5660   -2.0320 h1        1 MOL      0.086935
    151 H69        -5.3000    4.3360   -0.0440 hc        1 MOL      0.034892
    152 H70        -5.7020    2.6040    0.3050 hc        1 MOL      0.034892
    153 H71        -7.1320    2.5700   -1.6540 hc        1 MOL     -0.005920
    154 H72        -6.3280    4.0300   -2.2710 hc        1 MOL     -0.005920
    155 H73        -7.2760    5.4380   -0.6170 hc        1 MOL      0.042296
    156 H74        -7.8010    4.0690    0.3910 hc        1 MOL      0.042296
    157 H75        -8.8760    4.7530   -2.3510 hx        1 MOL      0.089350
    158 H76        -9.5870    5.2660   -0.7650 hx        1 MOL      0.089350
    159 H77        -9.1750    2.4840   -1.3190 hn        1 MOL      0.387531
    160 H78       -10.0800    3.3170   -0.1790 hn        1 MOL      0.387531
    161 H79       -10.5030    3.2330   -1.8560 hn        1 MOL      0.387531
    162 N14        -4.4730    0.3470   -1.4180 n         1 MOL     -0.081324
    163 C49        -4.7590   -1.0450   -1.9530 c3        1 MOL     -0.287929
    164 C50        -6.2700   -1.4450   -2.0530 c         1 MOL      0.466744
    165 O22        -7.0350   -1.1630   -1.1290 o         1 MOL     -0.507113
    166 C51        -4.0150   -2.1180   -1.0060 c3        1 MOL      0.104333
    167 C52        -3.8620   -3.4810   -1.6750 c3        1 MOL     -0.119501
    168 C53        -3.4040   -3.4400   -3.0640 c         1 MOL      0.749521
    169 O23        -4.2250   -3.6140   -3.9750 o         1 MOL     -0.731214
    170 O24        -2.1810   -3.4800   -3.2920 o         1 MOL     -0.731214
    171 H80        -4.2060    0.4420   -0.4510 hn        1 MOL      0.093527
    172 H81        -4.3370   -1.0940   -2.9580 h1        1 MOL      0.144413
    173 H82        -4.5870   -2.1060   -0.0850 hc        1 MOL      0.080890
    174 H83        -2.9790   -1.7600   -0.9260 hc        1 MOL      0.080890
    175 H84        -4.7850   -4.0740   -1.6430 hc        1 MOL      0.014474
    176 H85        -3.1610   -4.1210   -1.1350 hc        1 MOL      0.014474
    177 N15        -6.6760   -2.1930   -3.1220 n         1 MOL     -0.255224
    178 C54        -8.0540   -2.6230   -3.3850 c3        1 MOL     -0.229942
    179 H86        -8.6860   -1.7470   -3.5260 h1        1 MOL      0.099851
    180 H87        -8.0780   -3.2380   -4.2850 h1        1 MOL      0.099851
    181 H88        -8.4220   -3.2040   -2.5380 h1        1 MOL      0.099851
    182 H89        -5.9740   -2.4850   -3.7780 hn        1 MOL      0.274615
    183 Ca1         0.2550   -3.9210   -3.5930 Ca        1 MOL      1.758385
    184 O25         1.4860   -5.7270   -5.2790 oh        1 MOL     -0.831612
    185 H90         2.3510   -5.7480   -4.8560 ho        1 MOL      0.417946
    186 H91         1.6750   -5.6770   -6.2160 ho        1 MOL      0.417946
    187 O26        -0.1880   -1.6180   -4.9750 oh        1 MOL     -0.831612
    188 H92         0.2420   -0.9780   -5.5460 ho        1 MOL      0.417946
    189 H93        -0.2140   -1.1950   -4.1190 ho        1 MOL      0.417946
    190 O27        -0.8330   -4.5010   -6.1240 oh        1 MOL     -0.831612
    191 H94        -0.5700   -4.7960   -6.9910 ho        1 MOL      0.417946
    192 H95        -1.6620   -4.0550   -6.2560 ho        1 MOL      0.417946
    193 O28        -1.2160   -6.1970   -3.1570 oh        1 MOL     -0.831612
    194 H96        -1.2640   -7.1490   -3.0500 ho        1 MOL      0.417946
    195 H97        -2.0790   -5.9480   -3.4930 ho        1 MOL      0.417946
    196 O29         2.4010   -2.8600   -5.0380 oh        1 MOL     -0.831612
    197 H98         2.6710   -2.0860   -5.5400 ho        1 MOL      0.417946
    198 H99         3.2230   -3.3090   -4.8290 ho        1 MOL      0.417946
@<TRIPOS>BOND
     1    1    2 1   
     2    1    4 1   
     3    1    5 1   
     4    1    6 1   
     5    2    3 2   
     6    2    7 1   
     7    7    8 1   
     8    7   15 1   
     9    8    9 1   
    10    8   11 1   
    11    8   16 1   
    12    9   10 2   
    13    9   19 1   
    14   11   12 1   
    15   11   17 1   
    16   11   18 1   
    17   12   13 1   
    18   12   14 1   
    19   19   20 1   
    20   19   28 1   
    21   20   21 1   
    22   20   23 1   
    23   20   29 1   
    24   21   22 2   
    25   21   41 1   
    26   23   24 1   
    27   23   30 1   
    28   23   31 1   
    29   24   25 1   
    30   24   32 1   
    31   24   33 1   
    32   25   26 1   
    33   25   34 1   
    34   25   35 1   
    35   26   27 1   
    36   26   36 1   
    37   26   37 1   
    38   27   38 1   
    39   27   39 1   
    40   27   40 1   
    41   41   42 1   
    42   41   49 1   
    43   42   43 1   
    44   42   45 1   
    45   42   50 1   
    46   43   44 2   
    47   43   53 1   
    48   45   46 1   
    49   45   51 1   
    50   45   52 1   
    51   46   47 1   
    52   46   48 1   
    53   53   54 1   
    54   53   57 1   
    55   54   55 1   
    56   54   58 1   
    57   54   59 1   
    58   55   56 2   
    59   55   60 1   
    60   60   61 1   
    61   60   68 1   
    62   61   62 1   
    63   61   64 1   
    64   61   69 1   
    65   62   63 2   
    66   62   72 1   
    67   64   65 1   
    68   64   70 1   
    69   64   71 1   
    70   65   66 1   
    71   65   67 1   
    72   72   73 1   
    73   72   76 1   
    74   73   74 1   
    75   73   77 1   
    76   73   78 1   
    77   74   75 2   
    78   74   79 1   
    79   79   80 1   
    80   79   86 1   
    81   80   81 1   
    82   80   83 1   
    83   80   87 1   
    84   81   82 2   
    85   81   93 1   
    86   83   84 1   
    87   83   85 1   
    88   83   88 1   
    89   84   90 1   
    90   84   91 1   
    91   84   92 1   
    92   85   89 1   
    93   93   94 1   
    94   93  101 1   
    95   94   95 1   
    96   94   97 1   
    97   94  102 1   
    98   95   96 2   
    99   95  112 1   
   100   97   98 1   
   101   97   99 1   
   102   97  103 1   
   103   98  100 1   
   104   98  104 1   
   105   98  105 1   
   106   99  106 1   
   107   99  107 1   
   108   99  108 1   
   109  100  109 1   
   110  100  110 1   
   111  100  111 1   
   112  112  113 1   
   113  112  119 1   
   114  113  114 1   
   115  113  116 1   
   116  113  120 1   
   117  114  115 2   
   118  114  126 1   
   119  116  117 1   
   120  116  118 1   
   121  116  121 1   
   122  117  123 1   
   123  117  124 1   
   124  117  125 1   
   125  118  122 1   
   126  126  127 1   
   127  126  133 1   
   128  127  128 1   
   129  127  130 1   
   130  127  134 1   
   131  128  129 2   
   132  128  140 1   
   133  130  131 1   
   134  130  132 1   
   135  130  135 1   
   136  131  137 1   
   137  131  138 1   
   138  131  139 1   
   139  132  136 1   
   140  140  141 1   
   141  140  149 1   
   142  141  142 1   
   143  141  144 1   
   144  141  150 1   
   145  142  143 2   
   146  142  162 1   
   147  144  145 1   
   148  144  151 1   
   149  144  152 1   
   150  145  146 1   
   151  145  153 1   
   152  145  154 1   
   153  146  147 1   
   154  146  155 1   
   155  146  156 1   
   156  147  148 1   
   157  147  157 1   
   158  147  158 1   
   159  148  159 1   
   160  148  160 1   
   161  148  161 1   
   162  162  163 1   
   163  162  171 1   
   164  163  164 1   
   165  163  166 1   
   166  163  172 1   
   167  164  165 2   
   168  164  177 1   
   169  166  167 1   
   170  166  173 1   
   171  166  174 1   
   172  167  168 1   
   173  167  175 1   
   174  167  176 1   
   175  168  169 1   
   176  168  170 1   
   177  177  178 1   
   178  177  182 1   
   179  178  179 1   
   180  178  180 1   
   181  178  181 1   
   182  184  185 1   
   183  184  186 1   
   184  187  188 1   
   185  187  189 1   
   186  190  191 1   
   187  190  192 1   
   188  193  194 1   
   189  193  195 1   
   190  196  197 1   
   191  196  198 1   
@<TRIPOS>SUBSTRUCTURE
     1 MOL         1 TEMP              0 ****  ****    0 ROOT
