@<TRIPOS>MOLECULE
MOL
  192   187     1     0     0
SMALL
resp


@<TRIPOS>ATOM
      1 C1         -8.9880    1.7790   -2.0250 c3        1 MOL     -0.517500
      2 C2         -7.8790    1.4170   -0.9420 c         1 MOL      0.672823
      3 O1         -6.8330    2.0160   -0.8440 o         1 MOL     -0.623678
      4 H1         -9.0530    2.8620   -2.1300 hc        1 MOL      0.133027
      5 H2         -8.7180    1.3370   -2.9840 hc        1 MOL      0.133027
      6 H3         -9.9530    1.3870   -1.7030 hc        1 MOL      0.133027
      7 N1         -8.1770    0.3840   -0.1590 n         1 MOL     -0.205979
      8 C3         -7.5440    0.0110    1.0870 c3        1 MOL     -0.168756
      9 C4         -6.8950   -1.4170    1.0010 c         1 MOL      0.462502
     10 O2         -6.6680   -2.0770    2.0420 o         1 MOL     -0.436998
     11 C5         -8.6000    0.0760    2.2890 c3        1 MOL     -0.267144
     12 C6         -9.9240   -0.7590    2.1380 c         1 MOL      0.776597
     13 O3        -10.8150   -0.7580    3.0110 o         1 MOL     -0.693408
     14 O4        -10.0600   -1.5100    1.1300 o         1 MOL     -0.693408
     15 H4         -9.0990   -0.0020   -0.2240 hn        1 MOL      0.121383
     16 H5         -6.7510    0.7350    1.2710 h1        1 MOL      0.185219
     17 H6         -8.9190    1.1200    2.4090 hc        1 MOL      0.082392
     18 H7         -8.2420   -0.2170    3.2770 hc        1 MOL      0.082392
     19 N2         -6.6600   -1.9910   -0.2020 n         1 MOL     -0.391378
     20 C7         -6.3350   -3.4420   -0.3980 c3        1 MOL      0.103607
     21 C8         -4.8850   -3.7080    0.1150 c         1 MOL      0.446569
     22 O5         -4.7390   -4.7230    0.7740 o         1 MOL     -0.550209
     23 C9         -6.6780   -3.8860   -1.7820 c3        1 MOL     -0.269552
     24 C10        -8.1920   -3.9330   -2.0170 c3        1 MOL      0.278018
     25 C11        -8.3860   -4.5440   -3.4070 c3        1 MOL     -0.108845
     26 C12        -9.7930   -4.5250   -3.9780 c3        1 MOL     -0.007917
     27 N3        -10.7110   -5.2770   -3.0770 n4        1 MOL     -0.381636
     28 H8         -6.9470   -1.4410   -1.0050 hn        1 MOL      0.187159
     29 H9         -6.9040   -3.9960    0.3490 h1        1 MOL      0.102348
     30 H10        -6.3480   -4.8930   -2.0130 hc        1 MOL      0.081625
     31 H11        -6.2630   -3.1720   -2.4870 hc        1 MOL      0.081625
     32 H12        -8.5690   -2.9110   -2.0750 hc        1 MOL     -0.035386
     33 H13        -8.7380   -4.4490   -1.2240 hc        1 MOL     -0.035386
     34 H14        -7.9450   -5.5330   -3.3040 hc        1 MOL      0.046933
     35 H15        -7.7520   -3.9180   -4.0360 hc        1 MOL      0.046933
     36 H16        -9.8130   -4.9920   -4.9660 hx        1 MOL      0.097940
     37 H17       -10.0960   -3.4830   -4.0950 hx        1 MOL      0.097940
     38 H18       -11.6610   -4.9870   -3.2690 hn        1 MOL      0.330085
     39 H19       -10.5280   -6.2700   -3.1500 hn        1 MOL      0.330085
     40 H20       -10.6720   -4.9780   -2.1110 hn        1 MOL      0.330085
     41 N4         -3.8680   -2.9210   -0.0820 n         1 MOL     -0.275432
     42 C13        -3.7680   -1.5920   -0.8610 c3        1 MOL     -0.060341
     43 C14        -3.7020   -0.3520   -0.0190 c         1 MOL      0.191800
     44 O6         -3.6070   -0.3960    1.1950 o         1 MOL     -0.426031
     45 C15        -2.5790   -1.6820   -1.8610 c3        1 MOL     -0.239009
     46 C16        -1.2630   -1.8580   -1.1970 c         1 MOL      0.743984
     47 O7         -1.0980   -1.3380   -0.0130 o         1 MOL     -0.664917
     48 O8         -0.4570   -2.5820   -1.7720 o         1 MOL     -0.664917
     49 H21        -3.0200   -3.2040    0.3860 hn        1 MOL      0.298091
     50 H22        -4.6980   -1.5850   -1.4220 h1        1 MOL      0.107754
     51 H23        -2.4780   -0.8470   -2.5620 hc        1 MOL      0.061819
     52 H24        -2.7950   -2.5600   -2.4670 hc        1 MOL      0.061819
     53 N5         -3.8820    0.8390   -0.5460 n         1 MOL     -0.095794
     54 C17        -3.9670    2.1470    0.1410 c3        1 MOL     -0.156324
     55 C18        -2.7300    2.6790    0.7200 c         1 MOL      0.722965
     56 O9         -1.6840    2.0760    0.6410 o         1 MOL     -0.596601
     57 H25        -4.2300    0.8090   -1.4990 hn        1 MOL      0.201107
     58 H26        -4.6370    1.9740    0.9860 h1        1 MOL      0.105555
     59 H27        -4.3150    2.8970   -0.5620 h1        1 MOL      0.105555
     60 N6         -2.7860    3.9100    1.2560 n         1 MOL     -0.756746
     61 C19        -1.7590    4.6520    2.0160 c3        1 MOL      0.454745
     62 C20        -2.0280    6.1630    2.0930 c         1 MOL      0.425514
     63 O10        -3.1030    6.6130    1.8330 o         1 MOL     -0.517748
     64 C21        -1.8370    4.1550    3.4810 c3        1 MOL     -0.475564
     65 C22        -1.4250    2.7140    3.5230 c         1 MOL      0.862426
     66 O11        -0.3490    2.3900    3.0700 o         1 MOL     -0.721113
     67 O12        -2.1150    1.9350    4.1860 o         1 MOL     -0.721113
     68 H28        -3.7410    4.1700    1.4780 hn        1 MOL      0.341510
     69 H29        -0.7930    4.3890    1.6110 h1        1 MOL      0.006329
     70 H30        -2.8940    4.2800    3.7290 hc        1 MOL      0.113032
     71 H31        -1.1140    4.7000    4.0930 hc        1 MOL      0.113032
     72 N7         -1.1300    7.0250    2.5910 n         1 MOL     -0.434987
     73 C23         0.3070    6.6890    2.6900 c3        1 MOL     -0.135163
     74 C24         1.0490    6.2730    1.3670 c         1 MOL      0.603219
     75 O13         0.4980    6.5230    0.2850 o         1 MOL     -0.490482
     76 H32        -1.4130    7.9730    2.7870 hn        1 MOL      0.333891
     77 H33         0.4680    5.8730    3.3890 h1        1 MOL      0.080070
     78 H34         0.7780    7.6040    3.0680 h1        1 MOL      0.080070
     79 N8          2.2150    5.5860    1.4510 n         1 MOL     -0.631318
     80 C25         2.8770    4.9960    0.3330 c3        1 MOL     -0.008845
     81 C26         1.9680    3.8820   -0.2980 c         1 MOL      0.782243
     82 O14         1.3810    3.0670    0.4190 o         1 MOL     -0.638740
     83 C27         4.2350    4.3500    0.7440 c3        1 MOL      0.373201
     84 C28         5.0340    3.9840   -0.4970 c3        1 MOL     -0.259895
     85 O15         3.9990    3.1930    1.5280 oh        1 MOL     -0.625654
     86 H35         2.5730    5.4320    2.3790 hn        1 MOL      0.353304
     87 H36         3.0420    5.8270   -0.3490 h1        1 MOL      0.083737
     88 H37         4.8680    5.0450    1.2930 h1        1 MOL      0.011451
     89 H38         4.8580    2.7660    1.5930 ho        1 MOL      0.390838
     90 H39         6.0900    3.8830   -0.2310 hc        1 MOL      0.061676
     91 H40         4.6710    3.0520   -0.9220 hc        1 MOL      0.061676
     92 H41         5.0680    4.8530   -1.1520 hc        1 MOL      0.061676
     93 N9          1.9470    3.7670   -1.6150 n         1 MOL     -0.824251
     94 C29         1.0330    2.8700   -2.3860 c3        1 MOL      0.711868
     95 C30         1.2190    1.3800   -2.1160 c         1 MOL      0.314109
     96 O16         0.6330    0.8200   -1.2560 o         1 MOL     -0.523431
     97 C31        -0.4820    3.2160   -2.3620 c3        1 MOL      0.041131
     98 C32        -0.9570    4.6670   -2.7820 c3        1 MOL     -0.075442
     99 C33        -1.2150    2.1600   -3.2390 c3        1 MOL     -0.450274
    100 C34        -0.3420    4.9820   -4.1820 c3        1 MOL     -0.150142
    101 H42         2.4500    4.4130   -2.1990 hn        1 MOL      0.304751
    102 H43         1.2570    2.9180   -3.4500 h1        1 MOL     -0.149891
    103 H44        -0.8690    3.0230   -1.3700 hc        1 MOL      0.040892
    104 H45        -0.5850    5.3550   -2.0310 hc        1 MOL      0.053301
    105 H46        -2.0430    4.7470   -2.8540 hc        1 MOL      0.053301
    106 H47        -2.1720    2.5260   -3.6010 hc        1 MOL      0.121326
    107 H48        -0.7210    1.9670   -4.1960 hc        1 MOL      0.121326
    108 H49        -1.3370    1.2610   -2.6310 hc        1 MOL      0.121326
    109 H50        -0.6410    4.2820   -4.9720 hc        1 MOL      0.033277
    110 H51        -0.5720    6.0050   -4.4610 hc        1 MOL      0.033277
    111 H52         0.7310    5.1570   -4.1820 hc        1 MOL      0.033277
    112 N10         2.2170    0.8440   -2.8140 n         1 MOL     -0.298978
    113 C35         2.5690   -0.6240   -2.8540 c3        1 MOL     -0.296070
    114 C36         4.0590   -0.8460   -2.9530 c         1 MOL      0.636751
    115 O17         4.4250   -1.9620   -3.0750 o         1 MOL     -0.558236
    116 C37         1.9300   -1.3110   -4.0030 c3        1 MOL      0.291818
    117 C38         2.2250   -0.7600   -5.4050 c3        1 MOL     -0.034156
    118 O18         0.5490   -1.2090   -3.8340 oh        1 MOL     -0.580556
    119 H53         2.6980    1.4300   -3.4750 hn        1 MOL      0.253218
    120 H54         2.2490   -1.1740   -1.9680 h1        1 MOL      0.185005
    121 H55         2.3370   -2.3250   -4.1060 h1        1 MOL      0.034093
    122 H56         0.3720   -1.5760   -2.9660 ho        1 MOL      0.374010
    123 H57         1.8110    0.2330   -5.6010 hc        1 MOL      0.005927
    124 H58         3.2920   -0.6730   -5.6220 hc        1 MOL      0.005927
    125 H59         1.8400   -1.3860   -6.2080 hc        1 MOL      0.005927
    126 N11         4.9210    0.1730   -2.9110 n         1 MOL     -0.371245
    127 C39         6.3590    0.0480   -2.8170 c3        1 MOL      0.270409
    128 C40         6.8220   -0.6380   -1.4640 c         1 MOL      0.206593
    129 O19         7.0460    0.0540   -0.4750 o         1 MOL     -0.464682
    130 C41         7.1070    1.3460   -3.0410 c3        1 MOL      0.223941
    131 C42         8.5950    1.1000   -3.0260 c3        1 MOL     -0.282672
    132 O20         6.9270    1.9130   -4.3770 oh        1 MOL     -0.620696
    133 H60         4.4620    1.0700   -2.8890 hn        1 MOL      0.187511
    134 H61         6.5800   -0.6590   -3.6170 h1        1 MOL      0.042964
    135 H62         6.8080    2.0690   -2.2750 h1        1 MOL      0.014002
    136 H63         7.2410    2.8110   -4.2640 ho        1 MOL      0.397350
    137 H64         9.2220    1.9690   -3.2040 hc        1 MOL      0.082074
    138 H65         8.8650    0.7630   -2.0220 hc        1 MOL      0.082074
    139 H66         9.0420    0.3620   -3.6870 hc        1 MOL      0.082074
    140 N12         6.6950   -1.9480   -1.3070 n         1 MOL     -0.550407
    141 C43         6.4400   -2.7000   -0.1680 c3        1 MOL      0.485099
    142 C44         5.1150   -2.3230    0.4670 c         1 MOL      0.548448
    143 O21         4.5560   -1.2840    0.2350 o         1 MOL     -0.475088
    144 C45         7.6530   -2.6890    0.7870 c3        1 MOL     -0.451098
    145 C46         9.0750   -2.7390    0.1900 c3        1 MOL      0.017042
    146 C47        10.1410   -2.8040    1.2960 c3        1 MOL     -0.055999
    147 C48        11.5780   -2.4460    0.9380 c3        1 MOL     -0.096563
    148 N13        12.1760   -3.6150    0.3270 n4        1 MOL     -0.221869
    149 H67         6.3480   -2.3640   -2.1610 hn        1 MOL      0.286224
    150 H68         6.2340   -3.7360   -0.4580 h1        1 MOL     -0.013908
    151 H69         7.5640   -3.5360    1.4740 hc        1 MOL      0.122332
    152 H70         7.5920   -1.8130    1.4250 hc        1 MOL      0.122332
    153 H71         9.2440   -1.8180   -0.3660 hc        1 MOL      0.045380
    154 H72         9.0360   -3.5500   -0.5380 hc        1 MOL      0.045380
    155 H73        10.1560   -3.7800    1.7800 hc        1 MOL      0.068773
    156 H74         9.9890   -2.0450    2.0710 hc        1 MOL      0.068773
    157 H75        12.1160   -2.2330    1.8650 hx        1 MOL      0.127986
    158 H76        11.6350   -1.6150    0.2280 hx        1 MOL      0.127986
    159 H77        11.5790   -3.8240   -0.4680 hn        1 MOL      0.223882
    160 H78        13.1460   -3.4470    0.1230 hn        1 MOL      0.223882
    161 H79        12.0070   -4.4280    0.9040 hn        1 MOL      0.223882
    162 N14         4.6110   -3.1990    1.2770 n         1 MOL     -0.833673
    163 C49         3.3020   -3.1170    2.0000 c3        1 MOL      0.700351
    164 C50         2.1020   -2.7960    1.1530 c         1 MOL      0.099425
    165 O22         1.4830   -1.7930    1.4630 o         1 MOL     -0.471864
    166 C51         3.0700   -4.3280    2.9240 c3        1 MOL      0.188258
    167 C52         4.1270   -4.3360    4.0500 c3        1 MOL     -0.048751
    168 C53         3.8650   -5.3810    5.1020 c         1 MOL      0.684086
    169 O23         3.3550   -5.0370    6.1570 o         1 MOL     -0.643160
    170 O24         4.2490   -6.5940    4.9230 o         1 MOL     -0.643160
    171 H80         5.1950   -3.9970    1.4560 hn        1 MOL      0.377704
    172 H81         3.2800   -2.2560    2.6570 h1        1 MOL     -0.032982
    173 H82         3.1670   -5.3270    2.4870 hc        1 MOL     -0.064603
    174 H83         2.0900   -4.1710    3.3730 hc        1 MOL     -0.064603
    175 H84         4.2250   -3.3290    4.4410 hc        1 MOL     -0.080192
    176 H85         5.0590   -4.5830    3.5420 hc        1 MOL     -0.080192
    177 N15         1.6720   -3.5280    0.1340 n         1 MOL     -0.215743
    178 C54         2.1970   -4.8570   -0.3280 c3        1 MOL     -0.012508
    179 H86         3.2580   -4.9300   -0.0890 h1        1 MOL      0.026265
    180 H87         1.6550   -5.6570    0.1760 h1        1 MOL      0.026265
    181 H88         2.0610   -4.9470   -1.4060 h1        1 MOL      0.026265
    182 H89         0.8970   -3.1670   -0.3970 hn        1 MOL      0.302188
    183 Ca1         0.3610    0.5440    1.4140 Ca        1 MOL      1.762799
    184 O25        -1.5630   -0.4160    2.7830 oh        1 MOL     -0.875701
    185 H90        -2.2500   -0.5850    2.1380 ho        1 MOL      0.419139
    186 H91        -1.9900    0.1170    3.4560 ho        1 MOL      0.419139
    187 O26         2.9150    0.7760    0.8450 oh        1 MOL     -0.875701
    188 H92         3.3900    1.6030    0.8990 ho        1 MOL      0.419139
    189 H93         3.6030    0.1240    0.6840 ho        1 MOL      0.419139
    190 O27         1.6920   -0.1980    3.8430 oh        1 MOL     -0.875701
    191 H94         2.6230   -0.1070    4.0500 ho        1 MOL      0.419139
    192 H95         1.2470    0.0140    4.6620 ho        1 MOL      0.419139
@<TRIPOS>BOND
     1    1    2 1   
     2    1    4 1   
     3    1    5 1   
     4    1    6 1   
     5    2    3 2   
     6    2    7 1   
     7    7    8 1   
     8    7   15 1   
     9    8    9 1   
    10    8   11 1   
    11    8   16 1   
    12    9   10 2   
    13    9   19 1   
    14   11   12 1   
    15   11   17 1   
    16   11   18 1   
    17   12   13 1   
    18   12   14 1   
    19   19   20 1   
    20   19   28 1   
    21   20   21 1   
    22   20   23 1   
    23   20   29 1   
    24   21   22 2   
    25   21   41 1   
    26   23   24 1   
    27   23   30 1   
    28   23   31 1   
    29   24   25 1   
    30   24   32 1   
    31   24   33 1   
    32   25   26 1   
    33   25   34 1   
    34   25   35 1   
    35   26   27 1   
    36   26   36 1   
    37   26   37 1   
    38   27   38 1   
    39   27   39 1   
    40   27   40 1   
    41   41   42 1   
    42   41   49 1   
    43   42   43 1   
    44   42   45 1   
    45   42   50 1   
    46   43   44 2   
    47   43   53 1   
    48   45   46 1   
    49   45   51 1   
    50   45   52 1   
    51   46   47 1   
    52   46   48 1   
    53   53   54 1   
    54   53   57 1   
    55   54   55 1   
    56   54   58 1   
    57   54   59 1   
    58   55   56 2   
    59   55   60 1   
    60   60   61 1   
    61   60   68 1   
    62   61   62 1   
    63   61   64 1   
    64   61   69 1   
    65   62   63 2   
    66   62   72 1   
    67   64   65 1   
    68   64   70 1   
    69   64   71 1   
    70   65   66 1   
    71   65   67 1   
    72   72   73 1   
    73   72   76 1   
    74   73   74 1   
    75   73   77 1   
    76   73   78 1   
    77   74   75 2   
    78   74   79 1   
    79   79   80 1   
    80   79   86 1   
    81   80   81 1   
    82   80   83 1   
    83   80   87 1   
    84   81   82 2   
    85   81   93 1   
    86   83   84 1   
    87   83   85 1   
    88   83   88 1   
    89   84   90 1   
    90   84   91 1   
    91   84   92 1   
    92   85   89 1   
    93   93   94 1   
    94   93  101 1   
    95   94   95 1   
    96   94   97 1   
    97   94  102 1   
    98   95   96 2   
    99   95  112 1   
   100   97   98 1   
   101   97   99 1   
   102   97  103 1   
   103   98  100 1   
   104   98  104 1   
   105   98  105 1   
   106   99  106 1   
   107   99  107 1   
   108   99  108 1   
   109  100  109 1   
   110  100  110 1   
   111  100  111 1   
   112  112  113 1   
   113  112  119 1   
   114  113  114 1   
   115  113  116 1   
   116  113  120 1   
   117  114  115 2   
   118  114  126 1   
   119  116  117 1   
   120  116  118 1   
   121  116  121 1   
   122  117  123 1   
   123  117  124 1   
   124  117  125 1   
   125  118  122 1   
   126  126  127 1   
   127  126  133 1   
   128  127  128 1   
   129  127  130 1   
   130  127  134 1   
   131  128  129 2   
   132  128  140 1   
   133  130  131 1   
   134  130  132 1   
   135  130  135 1   
   136  131  137 1   
   137  131  138 1   
   138  131  139 1   
   139  132  136 1   
   140  140  141 1   
   141  140  149 1   
   142  141  142 1   
   143  141  144 1   
   144  141  150 1   
   145  142  143 2   
   146  142  162 1   
   147  144  145 1   
   148  144  151 1   
   149  144  152 1   
   150  145  146 1   
   151  145  153 1   
   152  145  154 1   
   153  146  147 1   
   154  146  155 1   
   155  146  156 1   
   156  147  148 1   
   157  147  157 1   
   158  147  158 1   
   159  148  159 1   
   160  148  160 1   
   161  148  161 1   
   162  162  163 1   
   163  162  171 1   
   164  163  164 1   
   165  163  166 1   
   166  163  172 1   
   167  164  165 2   
   168  164  177 1   
   169  166  167 1   
   170  166  173 1   
   171  166  174 1   
   172  167  168 1   
   173  167  175 1   
   174  167  176 1   
   175  168  169 1   
   176  168  170 1   
   177  177  178 1   
   178  177  182 1   
   179  178  179 1   
   180  178  180 1   
   181  178  181 1   
   182  184  185 1   
   183  184  186 1   
   184  187  188 1   
   185  187  189 1   
   186  190  191 1   
   187  190  192 1   
@<TRIPOS>SUBSTRUCTURE
     1 MOL         1 TEMP              0 ****  ****    0 ROOT
