@<TRIPOS>MOLECULE
MOL
  181   177     1     0     0
SMALL
resp


@<TRIPOS>ATOM
      1 C1         10.9110    6.9130   -1.3060 c3        1 MOL     -0.382209
      2 C2         10.0730    5.8940   -0.5310 c         1 MOL      0.651557
      3 O1          9.2600    6.2280    0.3520 o         1 MOL     -0.592904
      4 H1         11.6820    7.3220   -0.6520 hc        1 MOL      0.106357
      5 H2         11.3820    6.4240   -2.1590 hc        1 MOL      0.106357
      6 H3         10.2690    7.7200   -1.6580 hc        1 MOL      0.106357
      7 N1         10.2670    4.5880   -0.5850 n         1 MOL     -0.420017
      8 C3         10.9400    3.7280   -1.6070 c3        1 MOL     -0.104567
      9 C4         11.7190    2.5460   -1.0110 c         1 MOL      0.688387
     10 O2         12.4310    1.7970   -1.7880 o         1 MOL     -0.584669
     11 C5          9.8690    3.1930   -2.6090 c3        1 MOL      0.053234
     12 C6          8.7610    2.4120   -2.0010 c         1 MOL      0.518744
     13 O3          7.6550    2.2340   -2.6110 o         1 MOL     -0.686460
     14 O4          8.9050    1.8610   -0.8410 o         1 MOL     -0.686460
     15 H4         10.0640    4.1420    0.2910 hn        1 MOL      0.269844
     16 H5         11.7100    4.3180   -2.1040 h1        1 MOL      0.069125
     17 H6         10.2900    2.6720   -3.4660 hc        1 MOL      0.024505
     18 H7          9.3980    4.0260   -3.1290 hc        1 MOL      0.024505
     19 N2         11.6850    2.4100    0.3550 n         1 MOL     -0.699846
     20 C7         12.6160    1.4480    1.0110 c3        1 MOL      0.305600
     21 C8         11.8930    0.0900    1.2540 c         1 MOL      0.312220
     22 O5         12.4940   -0.7870    1.8620 o         1 MOL     -0.540461
     23 C9         13.2340    2.0930    2.2350 c3        1 MOL     -0.290203
     24 H8         10.9340    2.8160    0.8860 hn        1 MOL      0.379027
     25 H9         13.5240    1.2880    0.4200 h1        1 MOL      0.064830
     26 H10        12.5180    2.2570    3.0470 hc        1 MOL      0.082209
     27 H11        13.9100    1.4140    2.7610 hc        1 MOL      0.082209
     28 H12        13.7570    3.0080    1.9550 hc        1 MOL      0.082209
     29 N3         10.6640   -0.1540    0.8120 n         1 MOL     -0.116789
     30 C10         9.9670   -1.4680    1.0380 c3        1 MOL      0.080292
     31 C11         9.1480   -1.9470   -0.1360 c         1 MOL      0.313514
     32 O6          8.8680   -1.1250   -1.0540 o         1 MOL     -0.497195
     33 C12         9.0440   -1.4280    2.2270 c3        1 MOL     -0.101971
     34 C13         7.9760   -0.3370    2.1320 c         1 MOL      0.726064
     35 O7          7.0310   -0.3440    1.3550 o         1 MOL     -0.709300
     36 O8          8.1360    0.6410    2.8900 o         1 MOL     -0.709300
     37 H13        10.3140    0.5250    0.1580 hn        1 MOL      0.155794
     38 H14        10.7170   -2.2410    1.2180 h1        1 MOL      0.035946
     39 H15         9.6280   -1.3850    3.1510 hc        1 MOL      0.016078
     40 H16         8.5200   -2.3800    2.3200 hc        1 MOL      0.016078
     41 N4          8.6470   -3.1770   -0.0970 n         1 MOL     -0.159949
     42 C14         7.8460   -3.7570   -1.1650 c3        1 MOL     -0.509945
     43 C15         6.3860   -3.3290   -1.1890 c         1 MOL      0.735094
     44 O9          6.0930   -2.1960   -0.8550 o         1 MOL     -0.543007
     45 H17         9.0570   -3.7050    0.6580 hn        1 MOL      0.262497
     46 H18         7.8110   -4.8190   -0.9060 h1        1 MOL      0.186421
     47 H19         8.3030   -3.5220   -2.1220 h1        1 MOL      0.186421
     48 N5          5.5170   -4.1760   -1.8180 n         1 MOL     -0.569062
     49 C16         4.0780   -3.9420   -1.9700 c3        1 MOL      0.089958
     50 C17         3.1900   -4.1520   -0.6910 c         1 MOL      0.743387
     51 O10         3.4710   -4.9930    0.1680 o         1 MOL     -0.563339
     52 C18         3.5300   -4.7410   -3.1250 c3        1 MOL     -0.303492
     53 C19         2.4020   -3.9410   -3.6780 c         1 MOL      0.629789
     54 N6          1.1820   -4.3500   -3.4720 n         1 MOL     -0.720294
     55 O11         2.5440   -2.9960   -4.4160 o         1 MOL     -0.559044
     56 H20         5.9290   -4.9530   -2.3070 hn        1 MOL      0.304797
     57 H21         4.0260   -2.8820   -2.2100 h1        1 MOL      0.070611
     58 H22         3.2430   -5.7370   -2.7840 hc        1 MOL      0.103610
     59 H23         4.2460   -4.6710   -3.9360 hc        1 MOL      0.103610
     60 H24         1.0190   -5.2100   -2.9840 hn        1 MOL      0.362843
     61 H25         0.4360   -3.7120   -3.7140 hn        1 MOL      0.362843
     62 N7          2.0510   -3.4550   -0.6520 n         1 MOL     -0.716196
     63 C20         1.0530   -3.3570    0.4420 c3        1 MOL      0.128213
     64 C21         1.3480   -2.1840    1.3650 c         1 MOL      0.626502
     65 O12         2.3200   -1.4890    1.2250 o         1 MOL     -0.556682
     66 H26         1.8240   -2.8510   -1.4260 hn        1 MOL      0.350655
     67 H27         1.0520   -4.3030    0.9930 h1        1 MOL      0.079570
     68 H28         0.0830   -3.1270   -0.0090 h1        1 MOL      0.079570
     69 N8          0.6780   -2.0290    2.5570 n         1 MOL     -0.429975
     70 C22        -0.2700   -2.8630    3.0860 c3        1 MOL     -0.296042
     71 C23        -1.7120   -2.4620    2.7190 c         1 MOL      0.623737
     72 O13        -2.5860   -3.3380    2.7020 o         1 MOL     -0.521612
     73 C24        -0.1710   -3.0350    4.5810 c3        1 MOL      0.583860
     74 C25         1.1200   -3.6470    5.0950 c3        1 MOL     -0.367533
     75 O14        -0.1170   -1.9070    5.2710 oh        1 MOL     -0.600710
     76 H29         1.0150   -1.3240    3.1940 hn        1 MOL      0.289275
     77 H30        -0.1670   -3.8500    2.6390 h1        1 MOL      0.098350
     78 H31        -1.0120   -3.5830    5.0000 h1        1 MOL     -0.036260
     79 H32        -1.0140   -1.5710    5.2600 ho        1 MOL      0.352476
     80 H33         1.0530   -4.7140    4.8520 hc        1 MOL      0.086600
     81 H34         2.0400   -3.1210    4.8060 hc        1 MOL      0.086600
     82 H35         1.1180   -3.6410    6.1810 hc        1 MOL      0.086600
     83 N9         -1.8890   -1.1500    2.3220 n         1 MOL     -0.653798
     84 C26        -3.2380   -0.7620    1.7340 c3        1 MOL     -0.015135
     85 C27        -3.3070   -1.3120    0.2520 c         1 MOL      0.720322
     86 O15        -2.3290   -1.0760   -0.4910 o         1 MOL     -0.642163
     87 C28        -3.4450    0.8120    1.7670 c3        1 MOL     -0.048652
     88 C29        -3.4890    1.2740    3.2540 c3        1 MOL      0.113375
     89 C30        -4.7880    1.1730    1.1600 c3        1 MOL     -0.380407
     90 C31        -3.6970    2.7460    3.5040 c3        1 MOL     -0.078255
     91 H36        -1.1110   -0.5110    2.3640 hn        1 MOL      0.327357
     92 H37        -3.9920   -1.2580    2.3540 h1        1 MOL      0.117103
     93 H38        -2.6070    1.2810    1.2650 hc        1 MOL      0.057871
     94 H39        -2.5280    1.0630    3.7180 hc        1 MOL      0.003723
     95 H40        -4.2410    0.7150    3.8210 hc        1 MOL      0.003723
     96 H41        -4.8910    2.2340    0.9390 hc        1 MOL      0.114158
     97 H42        -5.1140    0.6100    0.2840 hc        1 MOL      0.114158
     98 H43        -5.5310    0.8580    1.8950 hc        1 MOL      0.114158
     99 H44        -4.6190    3.0490    3.0070 hc        1 MOL      0.013297
    100 H45        -3.7860    2.9120    4.5850 hc        1 MOL      0.013297
    101 H46        -2.8170    3.3140    3.1940 hc        1 MOL      0.013297
    102 N10        -4.3800   -1.8470   -0.3290 n         1 MOL     -0.422833
    103 C32        -5.6600   -2.1470    0.2980 c3        1 MOL     -0.003325
    104 C33        -6.8430   -1.7550   -0.6640 c         1 MOL      0.665891
    105 O16        -6.7340   -1.6570   -1.8770 o         1 MOL     -0.533524
    106 C34        -5.7670   -3.5730    0.8710 c3        1 MOL     -0.133487
    107 C35        -5.0020   -4.6000    0.0620 c         1 MOL      0.684289
    108 O17        -4.2950   -5.4430    0.6860 o         1 MOL     -0.723085
    109 O18        -5.1200   -4.7040   -1.1690 o         1 MOL     -0.723085
    110 H47        -4.3880   -1.8940   -1.3410 hn        1 MOL      0.281702
    111 H48        -5.8480   -1.5320    1.1750 h1        1 MOL      0.020021
    112 H49        -6.8270   -3.8110    0.8760 hc        1 MOL      0.024767
    113 H50        -5.4690   -3.6730    1.9250 hc        1 MOL      0.024767
    114 N11        -8.0470   -1.5030   -0.0580 n         1 MOL     -0.655011
    115 C36        -9.2460   -0.8930   -0.6900 c3        1 MOL      0.439428
    116 C37       -10.0790   -0.1830    0.3550 c         1 MOL      0.297644
    117 O19       -10.1800   -0.7360    1.4620 o         1 MOL     -0.516465
    118 C38       -10.0900   -2.0100   -1.3330 c3        1 MOL     -0.199249
    119 C39       -11.4700   -1.6810   -1.9170 ca        1 MOL      0.020535
    120 C40       -12.5920   -1.7080   -1.0660 ca        1 MOL     -0.080331
    121 C41       -11.6960   -1.3490   -3.2480 ca        1 MOL     -0.080331
    122 C42       -13.8810   -1.3830   -1.5130 ca        1 MOL     -0.176114
    123 C43       -12.9740   -1.0340   -3.7360 ca        1 MOL     -0.176114
    124 C44       -14.0320   -0.9950   -2.8620 ca        1 MOL     -0.040393
    125 H51        -8.0620   -1.4830    0.9480 hn        1 MOL      0.311962
    126 H52        -8.9790   -0.1790   -1.4670 h1        1 MOL     -0.039947
    127 H53       -10.1850   -2.7690   -0.5500 hc        1 MOL      0.079086
    128 H54        -9.4250   -2.4370   -2.0880 hc        1 MOL      0.079086
    129 H55       -12.4280   -1.9950   -0.0380 ha        1 MOL      0.104122
    130 H56       -10.8400   -1.5270   -3.8960 ha        1 MOL      0.104122
    131 H57       -14.7330   -1.5030   -0.8680 ha        1 MOL      0.112878
    132 H58       -13.1280   -0.8400   -4.7840 ha        1 MOL      0.112878
    133 H59       -15.0070   -0.7600   -3.2500 ha        1 MOL      0.072031
    134 N12       -10.5870    1.0320    0.1300 n         1 MOL     -0.020397
    135 C45       -10.5560    1.7480   -1.1620 c3        1 MOL      0.014586
    136 C46        -9.2840    2.5510   -1.4100 c         1 MOL      0.317621
    137 O20        -8.5230    2.3320   -2.3860 o         1 MOL     -0.492304
    138 C47       -11.8300    2.6440   -1.1080 c3        1 MOL      0.128990
    139 C48       -12.6140    2.2050    0.1570 c3        1 MOL     -0.095620
    140 C49       -11.5780    1.5590    1.0850 c3        1 MOL     -0.065902
    141 H60       -10.6970    0.9950   -1.9320 h1        1 MOL      0.030182
    142 H61       -11.5590    3.6950   -1.0600 hc        1 MOL     -0.026018
    143 H62       -12.5490    2.4760   -1.9170 hc        1 MOL     -0.026018
    144 H63       -13.1100    3.0490    0.6430 hc        1 MOL      0.024191
    145 H64       -13.2700    1.3710   -0.1010 hc        1 MOL      0.024191
    146 H65       -11.1710    2.3850    1.6720 h1        1 MOL      0.079935
    147 H66       -11.9240    0.7350    1.7160 h1        1 MOL      0.079935
    148 N13        -9.0200    3.4820   -0.4470 n         1 MOL     -0.278199
    149 C50        -7.7770    4.2200   -0.2970 c3        1 MOL      0.016708
    150 C51        -7.6840    5.5200   -1.1400 c         1 MOL      0.512184
    151 O21        -8.3890    6.4780   -0.8370 o         1 MOL     -0.578546
    152 C52        -7.5700    4.5560    1.2040 c3        1 MOL     -0.342308
    153 C53        -7.8970    3.4060    2.1310 c3        1 MOL      0.199338
    154 C54        -7.5790    3.6880    3.6750 c         1 MOL      0.704967
    155 O22        -7.9080    2.7330    4.4170 o         1 MOL     -0.727338
    156 O23        -7.1260    4.7830    4.0140 o         1 MOL     -0.727338
    157 H67        -9.8140    3.6250    0.1700 hn        1 MOL      0.316601
    158 H68        -6.9280    3.5500   -0.4570 h1        1 MOL      0.161808
    159 H69        -8.1980    5.3950    1.4970 hc        1 MOL      0.090163
    160 H70        -6.5310    4.8040    1.3960 hc        1 MOL      0.090163
    161 H71        -7.3230    2.5320    1.8390 hc        1 MOL     -0.125832
    162 H72        -8.9540    3.1340    2.0780 hc        1 MOL     -0.125832
    163 N14        -6.9110    5.6650   -2.2220 n         1 MOL     -0.432114
    164 C55        -6.2900    4.5620   -2.9260 c3        1 MOL      0.061849
    165 H73        -6.9090    4.2810   -3.7780 h1        1 MOL      0.020796
    166 H74        -5.3040    4.8650   -3.2780 h1        1 MOL      0.020796
    167 H75        -6.1900    3.7100   -2.2530 h1        1 MOL      0.020796
    168 H76        -7.0380    6.5190   -2.7370 hn        1 MOL      0.292880
    169 Ca1         6.6270    0.5530   -0.9380 Ca        1 MOL      1.715341
    170 O24         5.7300    2.3200    0.7330 oh        1 MOL     -0.820672
    171 H77         6.1690    2.2480    1.5770 ho        1 MOL      0.409206
    172 H78         4.8740    2.7030    0.9310 ho        1 MOL      0.409206
    173 O25         4.0360   -0.0370   -0.8630 oh        1 MOL     -0.820672
    174 H79         3.4430    0.4280   -0.2700 ho        1 MOL      0.409206
    175 H80         3.5070   -0.2080   -1.6420 ho        1 MOL      0.409206
    176 O26         6.3950   -0.7370   -3.2810 oh        1 MOL     -0.820672
    177 H81         6.7140   -1.5410   -3.6810 ho        1 MOL      0.409206
    178 H82         6.2320   -0.1480   -4.0120 ho        1 MOL      0.409206
    179 O27         4.8600    2.2600   -2.4090 oh        1 MOL     -0.820672
    180 H83         5.0490    2.7300   -3.2260 ho        1 MOL      0.409206
    181 H84         4.4560    2.9270   -1.8490 ho        1 MOL      0.409206
@<TRIPOS>BOND
     1    1    2 1   
     2    1    4 1   
     3    1    5 1   
     4    1    6 1   
     5    2    3 2   
     6    2    7 1   
     7    7    8 1   
     8    7   15 1   
     9    8    9 1   
    10    8   11 1   
    11    8   16 1   
    12    9   10 2   
    13    9   19 1   
    14   11   12 1   
    15   11   17 1   
    16   11   18 1   
    17   12   13 1   
    18   12   14 1   
    19   19   20 1   
    20   19   24 1   
    21   20   21 1   
    22   20   23 1   
    23   20   25 1   
    24   21   22 2   
    25   21   29 1   
    26   23   26 1   
    27   23   27 1   
    28   23   28 1   
    29   29   30 1   
    30   29   37 1   
    31   30   31 1   
    32   30   33 1   
    33   30   38 1   
    34   31   32 2   
    35   31   41 1   
    36   33   34 1   
    37   33   39 1   
    38   33   40 1   
    39   34   35 1   
    40   34   36 1   
    41   41   42 1   
    42   41   45 1   
    43   42   43 1   
    44   42   46 1   
    45   42   47 1   
    46   43   44 2   
    47   43   48 1   
    48   48   49 1   
    49   48   56 1   
    50   49   50 1   
    51   49   52 1   
    52   49   57 1   
    53   50   51 2   
    54   50   62 1   
    55   52   53 1   
    56   52   58 1   
    57   52   59 1   
    58   53   54 1   
    59   53   55 2   
    60   54   60 1   
    61   54   61 1   
    62   62   63 1   
    63   62   66 1   
    64   63   64 1   
    65   63   67 1   
    66   63   68 1   
    67   64   65 2   
    68   64   69 1   
    69   69   70 1   
    70   69   76 1   
    71   70   71 1   
    72   70   73 1   
    73   70   77 1   
    74   71   72 2   
    75   71   83 1   
    76   73   74 1   
    77   73   75 1   
    78   73   78 1   
    79   74   80 1   
    80   74   81 1   
    81   74   82 1   
    82   75   79 1   
    83   83   84 1   
    84   83   91 1   
    85   84   85 1   
    86   84   87 1   
    87   84   92 1   
    88   85   86 2   
    89   85  102 1   
    90   87   88 1   
    91   87   89 1   
    92   87   93 1   
    93   88   90 1   
    94   88   94 1   
    95   88   95 1   
    96   89   96 1   
    97   89   97 1   
    98   89   98 1   
    99   90   99 1   
   100   90  100 1   
   101   90  101 1   
   102  102  103 1   
   103  102  110 1   
   104  103  104 1   
   105  103  106 1   
   106  103  111 1   
   107  104  105 2   
   108  104  114 1   
   109  106  107 1   
   110  106  112 1   
   111  106  113 1   
   112  107  108 1   
   113  107  109 1   
   114  114  115 1   
   115  114  125 1   
   116  115  116 1   
   117  115  118 1   
   118  115  126 1   
   119  116  117 2   
   120  116  134 1   
   121  118  119 1   
   122  118  127 1   
   123  118  128 1   
   124  119  120 ar  
   125  119  121 ar  
   126  120  122 ar  
   127  120  129 1   
   128  121  123 ar  
   129  121  130 1   
   130  122  124 ar  
   131  122  131 1   
   132  123  124 ar  
   133  123  132 1   
   134  124  133 1   
   135  134  135 1   
   136  134  140 1   
   137  135  136 1   
   138  135  138 1   
   139  135  141 1   
   140  136  137 2   
   141  136  148 1   
   142  138  139 1   
   143  138  142 1   
   144  138  143 1   
   145  139  140 1   
   146  139  144 1   
   147  139  145 1   
   148  140  146 1   
   149  140  147 1   
   150  148  149 1   
   151  148  157 1   
   152  149  150 1   
   153  149  152 1   
   154  149  158 1   
   155  150  151 2   
   156  150  163 1   
   157  152  153 1   
   158  152  159 1   
   159  152  160 1   
   160  153  154 1   
   161  153  161 1   
   162  153  162 1   
   163  154  155 1   
   164  154  156 1   
   165  163  164 1   
   166  163  168 1   
   167  164  165 1   
   168  164  166 1   
   169  164  167 1   
   170  170  171 1   
   171  170  172 1   
   172  173  174 1   
   173  173  175 1   
   174  176  177 1   
   175  176  178 1   
   176  179  180 1   
   177  179  181 1   
@<TRIPOS>SUBSTRUCTURE
     1 MOL         1 TEMP              0 ****  ****    0 ROOT
